Accel-Sim [build accelsim-commit-e24e9b673dd081bc10ffe5aec04f047ee9fda2fe_modified_1.0]

        *** GPGPU-Sim Simulator Version 4.2.0  [build gpgpu-sim_git-commit-fcdb666c7f418d67664d19072fd200d8be34ae89_modified_2.0] ***


GPGPU-Sim: Configuration options:

-save_embedded_ptx                      0 # saves ptx files embedded in binary as <n>.ptx
-keep                                   0 # keep intermediate files created by GPGPU-Sim when interfacing with external programs
-gpgpu_ptx_save_converted_ptxplus                    0 # Saved converted ptxplus to a file
-gpgpu_occupancy_sm_number                   70 # The SM number to pass to ptxas when getting register usage for computing GPU occupancy. This parameter is required in the config.
-ptx_opcode_latency_int      4,13,4,5,145,32 # Opcode latencies for integers <ADD,MAX,MUL,MAD,DIV,SHFL>Default 1,1,19,25,145,32
-ptx_opcode_latency_fp          4,13,4,5,39 # Opcode latencies for single precision floating points <ADD,MAX,MUL,MAD,DIV>Default 1,1,1,1,30
-ptx_opcode_latency_dp         8,19,8,8,330 # Opcode latencies for double precision floating points <ADD,MAX,MUL,MAD,DIV>Default 8,8,8,8,335
-ptx_opcode_latency_sfu                  100 # Opcode latencies for SFU instructionsDefault 8
-ptx_opcode_latency_tesnor                   64 # Opcode latencies for Tensor instructionsDefault 64
-ptx_opcode_initiation_int          2,2,2,2,8,4 # Opcode initiation intervals for integers <ADD,MAX,MUL,MAD,DIV,SHFL>Default 1,1,4,4,32,4
-ptx_opcode_initiation_fp            2,2,2,2,4 # Opcode initiation intervals for single precision floating points <ADD,MAX,MUL,MAD,DIV>Default 1,1,1,1,5
-ptx_opcode_initiation_dp          4,4,4,4,130 # Opcode initiation intervals for double precision floating points <ADD,MAX,MUL,MAD,DIV>Default 8,8,8,8,130
-ptx_opcode_initiation_sfu                    8 # Opcode initiation intervals for sfu instructionsDefault 8
-ptx_opcode_initiation_tensor                   64 # Opcode initiation intervals for tensor instructionsDefault 64
-cdp_latency         7200,8000,100,12000,1600 # CDP API latency <cudaStreamCreateWithFlags, cudaGetParameterBufferV2_init_perWarp, cudaGetParameterBufferV2_perKernel, cudaLaunchDeviceV2_init_perWarp, cudaLaunchDevicV2_perKernel>Default 7200,8000,100,12000,1600
-network_mode                           2 # Interconnection network mode
-inter_config_file                   mesh # Interconnection network config file
-icnt_in_buffer_limit                  512 # in_buffer_limit
-icnt_out_buffer_limit                  512 # out_buffer_limit
-icnt_subnets                           2 # subnets
-icnt_arbiter_algo                      1 # arbiter_algo
-icnt_verbose                           0 # inct_verbose
-icnt_grant_cycles                      1 # grant_cycles
-gpgpu_ptx_use_cuobjdump                    1 # Use cuobjdump to extract ptx and sass from binaries
-gpgpu_experimental_lib_support                    0 # Try to extract code from cuda libraries [Broken because of unknown cudaGetExportTable]
-checkpoint_option                      0 #  checkpointing flag (0 = no checkpoint)
-checkpoint_kernel                      1 #  checkpointing during execution of which kernel (1- 1st kernel)
-checkpoint_CTA                         0 #  checkpointing after # of CTA (< less than total CTA)
-resume_option                          0 #  resume flag (0 = no resume)
-resume_kernel                          0 #  Resume from which kernel (1= 1st kernel)
-resume_CTA                             0 #  resume from which CTA 
-checkpoint_CTA_t                       0 #  resume from which CTA 
-checkpoint_insn_Y                      0 #  resume from which CTA 
-gpgpu_ptx_convert_to_ptxplus                    0 # Convert SASS (native ISA) to ptxplus and run ptxplus
-gpgpu_ptx_force_max_capability                   70 # Force maximum compute capability
-gpgpu_ptx_inst_debug_to_file                    0 # Dump executed instructions' debug information to file
-gpgpu_ptx_inst_debug_file       inst_debug.txt # Executed instructions' debug output file
-gpgpu_ptx_inst_debug_thread_uid                    1 # Thread UID for executed instructions' debug output
-gpgpu_simd_model                       1 # 1 = post-dominator
-gpgpu_shader_core_pipeline              2048:32 # shader core pipeline config, i.e., {<nthread>:<warpsize>}
-gpgpu_tex_cache:l1  N:4:128:256,L:R:m:N:L,T:512:8,128:2 # per-shader L1 texture cache  (READ-ONLY) config  {<nsets>:<bsize>:<assoc>,<rep>:<wr>:<alloc>:<wr_alloc>,<mshr>:<N>:<merge>,<mq>:<rf>}
-gpgpu_const_cache:l1 N:128:64:8,L:R:f:N:L,S:2:64,4 # per-shader L1 constant memory cache  (READ-ONLY) config  {<nsets>:<bsize>:<assoc>,<rep>:<wr>:<alloc>:<wr_alloc>,<mshr>:<N>:<merge>,<mq>} 
-gpgpu_cache:il1     N:64:128:16,L:R:f:N:L,S:2:48,4 # shader L1 instruction cache config  {<nsets>:<bsize>:<assoc>,<rep>:<wr>:<alloc>:<wr_alloc>,<mshr>:<N>:<merge>,<mq>} 
-gpgpu_cache:dl1     S:4:128:64,L:T:m:L:L,A:512:8,16:0,32 # per-shader L1 data cache config  {<nsets>:<bsize>:<assoc>,<rep>:<wr>:<alloc>:<wr_alloc>,<mshr>:<N>:<merge>,<mq> | none}
-gpgpu_l1_cache_write_ratio                   25 # L1D write ratio
-gpgpu_l1_banks                         4 # The number of L1 cache banks
-gpgpu_l1_banks_byte_interleaving                   32 # l1 banks byte interleaving granularity
-gpgpu_l1_banks_hashing_function                    0 # l1 banks hashing function
-gpgpu_l1_latency                      20 # L1 Hit Latency
-gpgpu_smem_latency                    20 # smem Latency
-gpgpu_cache:dl1PrefL1                 none # per-shader L1 data cache config  {<nsets>:<bsize>:<assoc>,<rep>:<wr>:<alloc>:<wr_alloc>,<mshr>:<N>:<merge>,<mq> | none}
-gpgpu_cache:dl1PrefShared                 none # per-shader L1 data cache config  {<nsets>:<bsize>:<assoc>,<rep>:<wr>:<alloc>:<wr_alloc>,<mshr>:<N>:<merge>,<mq> | none}
-gpgpu_gmem_skip_L1D                    0 # global memory access skip L1D cache (implements -Xptxas -dlcm=cg, default=no skip)
-gpgpu_perfect_mem                      0 # enable perfect memory mode (no cache miss)
-n_regfile_gating_group                    4 # group of lanes that should be read/written together)
-gpgpu_clock_gated_reg_file                    0 # enable clock gated reg file for power calculations
-gpgpu_clock_gated_lanes                    0 # enable clock gated lanes for power calculations
-gpgpu_shader_registers                65536 # Number of registers per shader core. Limits number of concurrent CTAs. (default 8192)
-gpgpu_registers_per_block                65536 # Maximum number of registers per CTA. (default 8192)
-gpgpu_ignore_resources_limitation                    0 # gpgpu_ignore_resources_limitation (default 0)
-gpgpu_shader_cta                      32 # Maximum number of concurrent CTAs in shader (default 32)
-gpgpu_num_cta_barriers                   16 # Maximum number of named barriers per CTA (default 16)
-gpgpu_n_clusters                      40 # number of processing clusters
-gpgpu_n_cores_per_cluster                    2 # number of simd cores per cluster
-gpgpu_n_cluster_ejection_buffer_size                   32 # number of packets in ejection buffer
-gpgpu_n_ldst_response_buffer_size                    2 # number of response packets in ld/st unit ejection buffer
-gpgpu_shmem_per_block                65536 # Size of shared memory per thread block or CTA (default 48kB)
-gpgpu_shmem_size                   98304 # Size of shared memory per shader core (default 16kB)
-gpgpu_shmem_option       0,8,16,32,64,96 # Option list of shared memory sizes
-gpgpu_unified_l1d_size                  128 # Size of unified data cache(L1D + shared memory) in KB
-gpgpu_adaptive_cache_config                    1 # adaptive_cache_config
-gpgpu_shmem_sizeDefault                98304 # Size of shared memory per shader core (default 16kB)
-gpgpu_shmem_size_PrefL1                16384 # Size of shared memory per shader core (default 16kB)
-gpgpu_shmem_size_PrefShared                16384 # Size of shared memory per shader core (default 16kB)
-gpgpu_shmem_num_banks                   32 # Number of banks in the shared memory in each shader core (default 16)
-gpgpu_shmem_limited_broadcast                    0 # Limit shared memory to do one broadcast per cycle (default on)
-gpgpu_shmem_warp_parts                    1 # Number of portions a warp is divided into for shared memory bank conflict check 
-gpgpu_mem_unit_ports                    1 # The number of memory transactions allowed per core cycle
-gpgpu_shmem_warp_parts                    1 # Number of portions a warp is divided into for shared memory bank conflict check 
-gpgpu_warpdistro_shader                   -1 # Specify which shader core to collect the warp size distribution from
-gpgpu_warp_issue_shader                    0 # Specify which shader core to collect the warp issue distribution from
-gpgpu_local_mem_map                    1 # Mapping from local memory space address to simulated GPU physical address space (default = enabled)
-gpgpu_num_reg_banks                    8 # Number of register banks (default = 8)
-gpgpu_reg_bank_use_warp_id                    0 # Use warp ID in mapping registers to banks (default = off)
-gpgpu_sub_core_model                    1 # Sub Core Volta/Pascal model (default = off)
-gpgpu_enable_specialized_operand_collector                    0 # enable_specialized_operand_collector
-gpgpu_operand_collector_num_units_sp                    4 # number of collector units (default = 4)
-gpgpu_operand_collector_num_units_dp                    0 # number of collector units (default = 0)
-gpgpu_operand_collector_num_units_sfu                    4 # number of collector units (default = 4)
-gpgpu_operand_collector_num_units_int                    0 # number of collector units (default = 0)
-gpgpu_operand_collector_num_units_tensor_core                    4 # number of collector units (default = 4)
-gpgpu_operand_collector_num_units_mem                    2 # number of collector units (default = 2)
-gpgpu_operand_collector_num_units_gen                    8 # number of collector units (default = 0)
-gpgpu_operand_collector_num_in_ports_sp                    1 # number of collector unit in ports (default = 1)
-gpgpu_operand_collector_num_in_ports_dp                    0 # number of collector unit in ports (default = 0)
-gpgpu_operand_collector_num_in_ports_sfu                    1 # number of collector unit in ports (default = 1)
-gpgpu_operand_collector_num_in_ports_int                    0 # number of collector unit in ports (default = 0)
-gpgpu_operand_collector_num_in_ports_tensor_core                    1 # number of collector unit in ports (default = 1)
-gpgpu_operand_collector_num_in_ports_mem                    1 # number of collector unit in ports (default = 1)
-gpgpu_operand_collector_num_in_ports_gen                    8 # number of collector unit in ports (default = 0)
-gpgpu_operand_collector_num_out_ports_sp                    1 # number of collector unit in ports (default = 1)
-gpgpu_operand_collector_num_out_ports_dp                    0 # number of collector unit in ports (default = 0)
-gpgpu_operand_collector_num_out_ports_sfu                    1 # number of collector unit in ports (default = 1)
-gpgpu_operand_collector_num_out_ports_int                    0 # number of collector unit in ports (default = 0)
-gpgpu_operand_collector_num_out_ports_tensor_core                    1 # number of collector unit in ports (default = 1)
-gpgpu_operand_collector_num_out_ports_mem                    1 # number of collector unit in ports (default = 1)
-gpgpu_operand_collector_num_out_ports_gen                    8 # number of collector unit in ports (default = 0)
-gpgpu_coalesce_arch                   60 # Coalescing arch (GT200 = 13, Fermi = 20)
-gpgpu_num_sched_per_core                    4 # Number of warp schedulers per core
-gpgpu_max_insn_issue_per_warp                    1 # Max number of instructions that can be issued per warp in one cycle by scheduler (either 1 or 2)
-gpgpu_dual_issue_diff_exec_units                    1 # should dual issue use two different execution unit resources (Default = 1)
-gpgpu_simt_core_sim_order                    1 # Select the simulation order of cores in a cluster (0=Fix, 1=Round-Robin)
-gpgpu_pipeline_widths 4,4,4,4,4,4,4,4,4,4,8,4,4 # Pipeline widths ID_OC_SP,ID_OC_DP,ID_OC_INT,ID_OC_SFU,ID_OC_MEM,OC_EX_SP,OC_EX_DP,OC_EX_INT,OC_EX_SFU,OC_EX_MEM,EX_WB,ID_OC_TENSOR_CORE,OC_EX_TENSOR_CORE
-gpgpu_tensor_core_avail                    1 # Tensor Core Available (default=0)
-gpgpu_num_sp_units                     4 # Number of SP units (default=1)
-gpgpu_num_dp_units                     4 # Number of DP units (default=0)
-gpgpu_num_int_units                    4 # Number of INT units (default=0)
-gpgpu_num_sfu_units                    4 # Number of SF units (default=1)
-gpgpu_num_tensor_core_units                    4 # Number of tensor_core units (default=1)
-gpgpu_num_mem_units                    1 # Number if ldst units (default=1) WARNING: not hooked up to anything
-gpgpu_scheduler                      lrr # Scheduler configuration: < lrr | gto | two_level_active > If two_level_active:<num_active_warps>:<inner_prioritization>:<outer_prioritization>For complete list of prioritization values see shader.h enum scheduler_prioritization_typeDefault: gto
-gpgpu_concurrent_kernel_sm                    1 # Support concurrent kernels on a SM (default = disabled)
-gpgpu_perfect_inst_const_cache                    1 # perfect inst and const cache mode, so all inst and const hits in the cache(default = disabled)
-gpgpu_inst_fetch_throughput                    4 # the number of fetched intruction per warp each cycle
-gpgpu_reg_file_port_throughput                    2 # the number ports of the register file
-specialized_unit_1         1,4,4,4,4,BRA # specialized unit config {<enabled>,<num_units>:<latency>:<initiation>,<ID_OC_SPEC>:<OC_EX_SPEC>,<NAME>}
-specialized_unit_2       1,4,200,4,4,TEX # specialized unit config {<enabled>,<num_units>:<latency>:<initiation>,<ID_OC_SPEC>:<OC_EX_SPEC>,<NAME>}
-specialized_unit_3      1,4,8,4,4,TENSOR # specialized unit config {<enabled>,<num_units>:<latency>:<initiation>,<ID_OC_SPEC>:<OC_EX_SPEC>,<NAME>}
-specialized_unit_4         0,4,4,4,4,BRA # specialized unit config {<enabled>,<num_units>:<latency>:<initiation>,<ID_OC_SPEC>:<OC_EX_SPEC>,<NAME>}
-specialized_unit_5         0,4,4,4,4,BRA # specialized unit config {<enabled>,<num_units>:<latency>:<initiation>,<ID_OC_SPEC>:<OC_EX_SPEC>,<NAME>}
-specialized_unit_6         0,4,4,4,4,BRA # specialized unit config {<enabled>,<num_units>:<latency>:<initiation>,<ID_OC_SPEC>:<OC_EX_SPEC>,<NAME>}
-specialized_unit_7         0,4,4,4,4,BRA # specialized unit config {<enabled>,<num_units>:<latency>:<initiation>,<ID_OC_SPEC>:<OC_EX_SPEC>,<NAME>}
-specialized_unit_8         0,4,4,4,4,BRA # specialized unit config {<enabled>,<num_units>:<latency>:<initiation>,<ID_OC_SPEC>:<OC_EX_SPEC>,<NAME>}
-gpgpu_perf_sim_memcpy                    1 # Fill the L2 cache on memcpy
-gpgpu_simple_dram_model                    0 # simple_dram_model with fixed latency and BW
-gpgpu_dram_scheduler                    1 # 0 = fifo, 1 = FR-FCFS (defaul)
-gpgpu_dram_partition_queues          64:64:64:64 # i2$:$2d:d2$:$2i
-l2_ideal                               0 # Use a ideal L2 cache that always hit
-gpgpu_cache:dl2     S:32:128:24,L:B:m:L:P,A:192:4,32:0,32 # unified banked L2 data cache config  {<nsets>:<bsize>:<assoc>,<rep>:<wr>:<alloc>:<wr_alloc>,<mshr>:<N>:<merge>,<mq>}
-gpgpu_cache:dl2_texture_only                    0 # L2 cache used for texture only
-gpgpu_n_mem                           24 # number of memory modules (e.g. memory controllers) in gpu
-gpgpu_n_sub_partition_per_mchannel                    2 # number of memory subpartition in each memory module
-gpgpu_n_mem_per_ctrlr                    1 # number of memory chips per memory controller
-gpgpu_memlatency_stat                   14 # track and display latency statistics 0x2 enables MC, 0x4 enables queue logs
-gpgpu_frfcfs_dram_sched_queue_size                   64 # 0 = unlimited (default); # entries per chip
-gpgpu_dram_return_queue_size                  192 # 0 = unlimited (default); # entries per chip
-gpgpu_dram_buswidth                   16 # default = 4 bytes (8 bytes per cycle at DDR)
-gpgpu_dram_burst_length                    2 # Burst length of each DRAM request (default = 4 data bus cycle)
-dram_data_command_freq_ratio                    2 # Frequency ratio between DRAM data bus and command bus (default = 2 times, i.e. DDR)
-gpgpu_dram_timing_opt nbk=16:CCD=1:RRD=3:RCD=12:RAS=28:RP=12:RC=40: CL=12:WL=2:CDLR=3:WR=10:nbkgrp=4:CCDL=2:RTPL=3 # DRAM timing parameters = {nbk:tCCD:tRRD:tRCD:tRAS:tRP:tRC:CL:WL:tCDLR:tWR:nbkgrp:tCCDL:tRTPL}
-gpgpu_l2_rop_latency                  160 # ROP queue latency (default 85)
-dram_latency                         100 # DRAM latency (default 30)
-dram_dual_bus_interface                  257 # dual_bus_interface (default = 0) 
-dram_bnk_indexing_policy                    1 # dram_bnk_indexing_policy (0 = normal indexing, 1 = Xoring with the higher bits) (Default = 0)
-dram_bnkgrp_indexing_policy                    1 # dram_bnkgrp_indexing_policy (0 = take higher bits, 1 = take lower bits) (Default = 0)
-dram_seperate_write_queue_enable                    1 # Seperate_Write_Queue_Enable
-dram_write_queue_size           128:108:32 # Write_Queue_Size
-dram_elimnate_rw_turnaround                    0 # elimnate_rw_turnaround i.e set tWTR and tRTW = 0
-icnt_flit_size                        40 # icnt_flit_size
-gpgpu_mem_addr_mapping dramid@8;00000000.00000000.00000000.00000000.0000RRRR.RRRRRRRR.RBBBCCCB.CCCSSSSS # mapping memory address to dram model {dramid@<start bit>;<memory address map>}
-gpgpu_mem_addr_test                    0 # run sweep test to check address mapping for aliased address
-gpgpu_mem_address_mask                    1 # 0 = old addressing mask, 1 = new addressing mask, 2 = new add. mask + flipped bank sel and chip sel bits
-gpgpu_memory_partition_indexing                    2 # 0 = no indexing, 1 = bitwise xoring, 2 = IPoly, 3 = custom indexing
-accelwattch_xml_file accelwattch_sass_sim.xml # AccelWattch XML file
-power_simulation_enabled                    0 # Turn on power simulator (1=On, 0=Off)
-power_per_cycle_dump                    0 # Dump detailed power output each cycle
-hw_perf_file_name            hw_perf.csv # Hardware Performance Statistics file
-hw_perf_bench_name                       # Kernel Name in Hardware Performance Statistics file
-power_simulation_mode                    0 # Switch performance counter input for power simulation (0=Sim, 1=HW, 2=HW-Sim Hybrid)
-dvfs_enabled                           0 # Turn on DVFS for power model
-aggregate_power_stats                    0 # Accumulate power across all kernels
-accelwattch_hybrid_perfsim_L1_RH                    0 # Get L1 Read Hits for Accelwattch-Hybrid from Accel-Sim
-accelwattch_hybrid_perfsim_L1_RM                    0 # Get L1 Read Misses for Accelwattch-Hybrid from Accel-Sim
-accelwattch_hybrid_perfsim_L1_WH                    0 # Get L1 Write Hits for Accelwattch-Hybrid from Accel-Sim
-accelwattch_hybrid_perfsim_L1_WM                    0 # Get L1 Write Misses for Accelwattch-Hybrid from Accel-Sim
-accelwattch_hybrid_perfsim_L2_RH                    0 # Get L2 Read Hits for Accelwattch-Hybrid from Accel-Sim
-accelwattch_hybrid_perfsim_L2_RM                    0 # Get L2 Read Misses for Accelwattch-Hybrid from Accel-Sim
-accelwattch_hybrid_perfsim_L2_WH                    0 # Get L2 Write Hits for Accelwattch-Hybrid from Accel-Sim
-accelwattch_hybrid_perfsim_L2_WM                    0 # Get L2 Write Misses for Accelwattch-Hybrid from Accel-Sim
-accelwattch_hybrid_perfsim_CC_ACC                    0 # Get Constant Cache Acesses for Accelwattch-Hybrid from Accel-Sim
-accelwattch_hybrid_perfsim_SHARED_ACC                    0 # Get Shared Memory Acesses for Accelwattch-Hybrid from Accel-Sim
-accelwattch_hybrid_perfsim_DRAM_RD                    0 # Get DRAM Reads for Accelwattch-Hybrid from Accel-Sim
-accelwattch_hybrid_perfsim_DRAM_WR                    0 # Get DRAM Writes for Accelwattch-Hybrid from Accel-Sim
-accelwattch_hybrid_perfsim_NOC                    0 # Get Interconnect Acesses for Accelwattch-Hybrid from Accel-Sim
-accelwattch_hybrid_perfsim_PIPE_DUTY                    0 # Get Pipeline Duty Cycle Acesses for Accelwattch-Hybrid from Accel-Sim
-accelwattch_hybrid_perfsim_NUM_SM_IDLE                    0 # Get Number of Idle SMs for Accelwattch-Hybrid from Accel-Sim
-accelwattch_hybrid_perfsim_CYCLES                    0 # Get Executed Cycles for Accelwattch-Hybrid from Accel-Sim
-accelwattch_hybrid_perfsim_VOLTAGE                    0 # Get Chip Voltage for Accelwattch-Hybrid from Accel-Sim
-power_trace_enabled                    0 # produce a file for the power trace (1=On, 0=Off)
-power_trace_zlevel                     6 # Compression level of the power trace output log (0=no comp, 9=highest)
-steady_power_levels_enabled                    0 # produce a file for the steady power levels (1=On, 0=Off)
-steady_state_definition                  8:4 # allowed deviation:number of samples
-gpgpu_max_cycle                        0 # terminates gpu simulation early (0 = no limit)
-gpgpu_max_insn                         0 # terminates gpu simulation early (0 = no limit)
-gpgpu_max_cta                          0 # terminates gpu simulation early (0 = no limit)
-gpgpu_max_completed_cta                    0 # terminates gpu simulation early (0 = no limit)
-gpgpu_runtime_stat                   500 # display runtime statistics such as dram utilization {<freq>:<flag>}
-liveness_message_freq                    1 # Minimum number of seconds between simulation liveness messages (0 = always print)
-gpgpu_compute_capability_major                    7 # Major compute capability version number
-gpgpu_compute_capability_minor                    0 # Minor compute capability version number
-gpgpu_flush_l1_cache                    1 # Flush L1 cache at the end of each kernel call
-gpgpu_flush_l2_cache                    0 # Flush L2 cache at the end of each kernel call
-gpgpu_deadlock_detect                    1 # Stop the simulation at deadlock (1=on (default), 0=off)
-gpgpu_ptx_instruction_classification                    0 # if enabled will classify ptx instruction types per kernel (Max 255 kernels now)
-gpgpu_ptx_sim_mode                     0 # Select between Performance (default) or Functional simulation (1)
-gpgpu_clock_domains 1200.0:1200.0:1200.0:850.0 # Clock Domain Frequencies in MhZ {<Core Clock>:<ICNT Clock>:<L2 Clock>:<DRAM Clock>}
-gpgpu_max_concurrent_kernel                  128 # maximum kernels that can run concurrently on GPU, set this value according to max resident grids for your compute capability
-gpgpu_cflog_interval                    0 # Interval between each snapshot in control flow logger
-visualizer_enabled                     0 # Turn on visualizer output (1=On, 0=Off)
-visualizer_outputfile                 NULL # Specifies the output log file for visualizer
-visualizer_zlevel                      6 # Compression level of the visualizer output log (0=no comp, 9=highest)
-gpgpu_stack_size_limit                 1024 # GPU thread stack size
-gpgpu_heap_size_limit              8388608 # GPU malloc heap size 
-gpgpu_runtime_sync_depth_limit                    2 # GPU device runtime synchronize depth
-gpgpu_runtime_pending_launch_count_limit                 2048 # GPU device runtime pending launch count
-trace_enabled                          0 # Turn on traces
-trace_components                    none # comma seperated list of traces to enable. Complete list found in trace_streams.tup. Default none
-trace_sampling_core                    0 # The core which is printed using CORE_DPRINTF. Default 0
-trace_sampling_memory_partition                   -1 # The memory partition which is printed using MEMPART_DPRINTF. Default -1 (i.e. all)
-enable_ptx_file_line_stats                    1 # Turn on PTX source line statistic profiling. (1 = On)
-ptx_line_stats_filename gpgpu_inst_stats.txt # Output file for PTX source line statistics.
-gpgpu_kernel_launch_latency                    0 # Kernel launch latency in cycles. Default: 0
-gpgpu_cdp_enabled                      0 # Turn on CDP
-gpgpu_TB_launch_latency                    0 # thread block launch latency in cycles. Default: 0
-trace               ./util/tracer_nvbit/traces/kernelslist.g # traces kernel filetraces kernel file directory
-trace_opcode_latency_initiation_int                  2,2 # Opcode latencies and initiation for integers in trace driven mode <latency,initiation>
-trace_opcode_latency_initiation_sp                  2,2 # Opcode latencies and initiation for sp in trace driven mode <latency,initiation>
-trace_opcode_latency_initiation_dp                  8,4 # Opcode latencies and initiation for dp in trace driven mode <latency,initiation>
-trace_opcode_latency_initiation_sfu                 20,8 # Opcode latencies and initiation for sfu in trace driven mode <latency,initiation>
-trace_opcode_latency_initiation_tensor                  8,4 # Opcode latencies and initiation for tensor in trace driven mode <latency,initiation>
-trace_opcode_latency_initiation_spec_op_1                  4,4 # specialized unit config <latency,initiation>
-trace_opcode_latency_initiation_spec_op_2                200,4 # specialized unit config <latency,initiation>
-trace_opcode_latency_initiation_spec_op_3                  8,4 # specialized unit config <latency,initiation>
-trace_opcode_latency_initiation_spec_op_4                  4,4 # specialized unit config <latency,initiation>
-trace_opcode_latency_initiation_spec_op_5                  4,4 # specialized unit config <latency,initiation>
-trace_opcode_latency_initiation_spec_op_6                  4,4 # specialized unit config <latency,initiation>
-trace_opcode_latency_initiation_spec_op_7                  4,4 # specialized unit config <latency,initiation>
-trace_opcode_latency_initiation_spec_op_8                  4,4 # specialized unit config <latency,initiation>
DRAM Timing Options:
nbk                                    16 # number of banks
CCD                                     1 # column to column delay
RRD                                     3 # minimal delay between activation of rows in different banks
RCD                                    12 # row to column delay
RAS                                    28 # time needed to activate row
RP                                     12 # time needed to precharge (deactivate) row
RC                                     40 # row cycle time
CDLR                                    3 # switching from write to read (changes tWTR)
WR                                     10 # last data-in to row precharge
CL                                     12 # CAS latency
WL                                      2 # Write latency
nbkgrp                                  4 # number of bank groups
CCDL                                    2 # column to column delay between accesses to different bank groups
RTPL                                    3 # read to precharge delay between accesses to different bank groups
Total number of memory sub partition = 48
addr_dec_mask[CHIP]  = 0000000000000000 	high:64 low:0
addr_dec_mask[BK]    = 0000000000007100 	high:15 low:8
addr_dec_mask[ROW]   = 000000000fff8000 	high:28 low:15
addr_dec_mask[COL]   = 0000000000000eff 	high:12 low:0
addr_dec_mask[BURST] = 000000000000001f 	high:5 low:0
sub_partition_id_mask = 0000000000000100
GPGPU-Sim uArch: clock freqs: 1200000000.000000:1200000000.000000:1200000000.000000:850000000.000000
GPGPU-Sim uArch: clock periods: 0.00000000083333333333:0.00000000083333333333:0.00000000083333333333:0.00000000117647058824
*** Initializing Memory Statistics ***
GPGPU-Sim uArch: performance model initialization complete.
launching memcpy command : MemcpyHtoD,0x00007f6f5f100000,1048576
launching memcpy command : MemcpyHtoD,0x00007f6f5f800000,1048576
launching memcpy command : MemcpyHtoD,0x00007f6f5f900000,1048576
launching memcpy command : MemcpyHtoD,0x00007f6f5fa00000,1048576
Processing kernel ./util/tracer_nvbit/traces/kernel-1.traceg
-kernel name = _Z5saxpyifPfS_
-kernel id = 1
-grid dim = (256,1,1)
-block dim = (1024,1,1)
-shmem = 0
-nregs = 10
-binary version = 70
-cuda stream id = 0
-shmem base_addr = 0x00007f6f95000000
-local mem base_addr = 0x00007f6f93000000
-nvbit version = 1.5.3
-accelsim tracer version = 3
Header info loaded for kernel command : ./util/tracer_nvbit/traces/kernel-1.traceg
Processing kernel ./util/tracer_nvbit/traces/kernel-2.traceg
-kernel name = _Z5scaleifPf
-kernel id = 2
-grid dim = (256,1,1)
-block dim = (1024,1,1)
-shmem = 0
-nregs = 8
-binary version = 70
-cuda stream id = 0
-shmem base_addr = 0x00007f6f95000000
-local mem base_addr = 0x00007f6f93000000
-nvbit version = 1.5.3
-accelsim tracer version = 3
Header info loaded for kernel command : ./util/tracer_nvbit/traces/kernel-2.traceg
Processing kernel ./util/tracer_nvbit/traces/kernel-3.traceg
-kernel name = _Z5saxpyifPfS_
-kernel id = 3
-grid dim = (256,1,1)
-block dim = (1024,1,1)
-shmem = 0
-nregs = 10
-binary version = 70
-cuda stream id = 93864869445264
-shmem base_addr = 0x00007f6f95000000
-local mem base_addr = 0x00007f6f93000000
-nvbit version = 1.5.3
-accelsim tracer version = 3
Header info loaded for kernel command : ./util/tracer_nvbit/traces/kernel-3.traceg
Processing kernel ./util/tracer_nvbit/traces/kernel-4.traceg
-kernel name = _Z3addiPfS_
-kernel id = 4
-grid dim = (256,1,1)
-block dim = (1024,1,1)
-shmem = 0
-nregs = 12
-binary version = 70
-cuda stream id = 0
-shmem base_addr = 0x00007f6f95000000
-local mem base_addr = 0x00007f6f93000000
-nvbit version = 1.5.3
-accelsim tracer version = 3
Header info loaded for kernel command : ./util/tracer_nvbit/traces/kernel-4.traceg
launching kernel name: _Z5saxpyifPfS_ uid: 1 cuda_stream_id: 0
gpgpu_sim::launch: kernelID = 1, streamID = 0
gpgpu_sim::launch start_cycle=0, end_cycle=0
GPGPU-Sim uArch: CTA/core = 2, limited by: threads
GPGPU-Sim: Reconfigure L1 cache to 128KB
thread block = 0,0,0
thread block = 1,0,0
thread block = 2,0,0
thread block = 3,0,0
thread block = 4,0,0
thread block = 5,0,0
thread block = 6,0,0
thread block = 7,0,0
thread block = 8,0,0
thread block = 9,0,0
thread block = 10,0,0
thread block = 11,0,0
thread block = 12,0,0
thread block = 13,0,0
thread block = 14,0,0
thread block = 15,0,0
thread block = 16,0,0
thread block = 17,0,0
thread block = 18,0,0
thread block = 19,0,0
thread block = 20,0,0
thread block = 21,0,0
thread block = 22,0,0
thread block = 23,0,0
thread block = 24,0,0
thread block = 25,0,0
thread block = 26,0,0
thread block = 27,0,0
thread block = 28,0,0
thread block = 29,0,0
thread block = 30,0,0
thread block = 31,0,0
thread block = 32,0,0
thread block = 33,0,0
thread block = 34,0,0
thread block = 35,0,0
thread block = 36,0,0
thread block = 37,0,0
thread block = 38,0,0
thread block = 39,0,0
thread block = 40,0,0
thread block = 41,0,0
thread block = 42,0,0
thread block = 43,0,0
thread block = 44,0,0
thread block = 45,0,0
thread block = 46,0,0
thread block = 47,0,0
thread block = 48,0,0
thread block = 49,0,0
thread block = 50,0,0
thread block = 51,0,0
thread block = 52,0,0
thread block = 53,0,0
thread block = 54,0,0
thread block = 55,0,0
thread block = 56,0,0
thread block = 57,0,0
thread block = 58,0,0
thread block = 59,0,0
thread block = 60,0,0
thread block = 61,0,0
thread block = 62,0,0
thread block = 63,0,0
thread block = 64,0,0
thread block = 65,0,0
thread block = 66,0,0
thread block = 67,0,0
thread block = 68,0,0
thread block = 69,0,0
thread block = 70,0,0
thread block = 71,0,0
thread block = 72,0,0
thread block = 73,0,0
thread block = 74,0,0
thread block = 75,0,0
thread block = 76,0,0
thread block = 77,0,0
thread block = 78,0,0
thread block = 79,0,0
thread block = 80,0,0
thread block = 81,0,0
thread block = 82,0,0
thread block = 83,0,0
thread block = 84,0,0
thread block = 85,0,0
thread block = 86,0,0
thread block = 87,0,0
thread block = 88,0,0
thread block = 89,0,0
thread block = 90,0,0
thread block = 91,0,0
thread block = 92,0,0
thread block = 93,0,0
thread block = 94,0,0
thread block = 95,0,0
thread block = 96,0,0
thread block = 97,0,0
thread block = 98,0,0
thread block = 99,0,0
thread block = 100,0,0
thread block = 101,0,0
thread block = 102,0,0
thread block = 103,0,0
thread block = 104,0,0
thread block = 105,0,0
thread block = 106,0,0
thread block = 107,0,0
thread block = 108,0,0
thread block = 109,0,0
thread block = 110,0,0
thread block = 111,0,0
thread block = 112,0,0
thread block = 113,0,0
thread block = 114,0,0
thread block = 115,0,0
thread block = 116,0,0
thread block = 117,0,0
thread block = 118,0,0
thread block = 119,0,0
thread block = 120,0,0
thread block = 121,0,0
thread block = 122,0,0
thread block = 123,0,0
thread block = 124,0,0
thread block = 125,0,0
thread block = 126,0,0
thread block = 127,0,0
thread block = 128,0,0
thread block = 129,0,0
thread block = 130,0,0
thread block = 131,0,0
thread block = 132,0,0
thread block = 133,0,0
thread block = 134,0,0
thread block = 135,0,0
thread block = 136,0,0
thread block = 137,0,0
thread block = 138,0,0
thread block = 139,0,0
thread block = 140,0,0
thread block = 141,0,0
thread block = 142,0,0
thread block = 143,0,0
thread block = 144,0,0
thread block = 145,0,0
thread block = 146,0,0
thread block = 147,0,0
thread block = 148,0,0
thread block = 149,0,0
thread block = 150,0,0
thread block = 151,0,0
thread block = 152,0,0
thread block = 153,0,0
thread block = 154,0,0
thread block = 155,0,0
thread block = 156,0,0
thread block = 157,0,0
thread block = 158,0,0
thread block = 159,0,0
thread block = 160,0,0
thread block = 161,0,0
thread block = 162,0,0
thread block = 163,0,0
thread block = 164,0,0
thread block = 165,0,0
thread block = 166,0,0
thread block = 167,0,0
thread block = 168,0,0
thread block = 169,0,0
thread block = 170,0,0
thread block = 171,0,0
thread block = 172,0,0
thread block = 173,0,0
thread block = 174,0,0
thread block = 175,0,0
thread block = 176,0,0
thread block = 177,0,0
thread block = 178,0,0
thread block = 179,0,0
thread block = 180,0,0
thread block = 181,0,0
thread block = 182,0,0
thread block = 183,0,0
thread block = 184,0,0
thread block = 185,0,0
thread block = 186,0,0
thread block = 187,0,0
thread block = 188,0,0
thread block = 189,0,0
thread block = 190,0,0
thread block = 191,0,0
thread block = 192,0,0
thread block = 193,0,0
thread block = 194,0,0
thread block = 195,0,0
thread block = 196,0,0
thread block = 197,0,0
thread block = 198,0,0
thread block = 199,0,0
thread block = 200,0,0
thread block = 201,0,0
thread block = 202,0,0
thread block = 203,0,0
thread block = 204,0,0
thread block = 205,0,0
thread block = 206,0,0
thread block = 207,0,0
thread block = 208,0,0
thread block = 209,0,0
thread block = 210,0,0
thread block = 211,0,0
thread block = 212,0,0
thread block = 213,0,0
thread block = 214,0,0
thread block = 215,0,0
thread block = 216,0,0
thread block = 217,0,0
thread block = 218,0,0
thread block = 219,0,0
thread block = 220,0,0
thread block = 221,0,0
thread block = 222,0,0
thread block = 223,0,0
thread block = 224,0,0
thread block = 225,0,0
thread block = 226,0,0
thread block = 227,0,0
thread block = 228,0,0
thread block = 229,0,0
thread block = 230,0,0
thread block = 231,0,0
thread block = 232,0,0
thread block = 233,0,0
thread block = 234,0,0
thread block = 235,0,0
thread block = 236,0,0
thread block = 237,0,0
thread block = 238,0,0
thread block = 239,0,0
thread block = 240,0,0
thread block = 241,0,0
thread block = 242,0,0
thread block = 243,0,0
thread block = 244,0,0
thread block = 245,0,0
thread block = 246,0,0
thread block = 247,0,0
thread block = 248,0,0
thread block = 249,0,0
thread block = 250,0,0
thread block = 251,0,0
thread block = 252,0,0
thread block = 253,0,0
thread block = 254,0,0
thread block = 255,0,0
gpgpu_sim::set_kernel_done start_cycle=0, end_cycle=7393
Destroy streams for kernel 1: size 0
kernel_name = _Z5saxpyifPfS_ 
kernel_launch_uid = 1 
gpu_sim_cycle = 7394
gpu_sim_insn = 3407872
gpu_ipc =     460.8969
gpu_tot_sim_cycle = 7394
gpu_tot_sim_insn = 3407872
gpu_tot_ipc =     460.8969
gpu_tot_issued_cta = 256
gpu_occupancy = 73.3160% 
gpu_tot_occupancy = 73.3160% 
max_total_param_size = 0
gpu_stall_dramfull = 31007
gpu_stall_icnt2sh    = 0
partiton_level_parallism =      13.2951
partiton_level_parallism_total  =      13.2951
partiton_level_parallism_util =      14.3740
partiton_level_parallism_util_total  =      14.3740
L2_BW  =     510.5320 GB/Sec
L2_BW_total  =     510.5320 GB/Sec
gpu_total_sim_rate=262144

========= Core cache stats =========
L1I_cache:
	L1I_total_cache_accesses = 0
	L1I_total_cache_misses = 0
	L1I_total_cache_pending_hits = 0
	L1I_total_cache_reservation_fails = 0
L1D_cache:
	L1D_cache_core[0]: Access = 2304, Miss = 1536, Miss_rate = 0.667, Pending_hits = 0, Reservation_fails = 5934
	L1D_cache_core[1]: Access = 1920, Miss = 1280, Miss_rate = 0.667, Pending_hits = 0, Reservation_fails = 7303
	L1D_cache_core[2]: Access = 3072, Miss = 2048, Miss_rate = 0.667, Pending_hits = 0, Reservation_fails = 4484
	L1D_cache_core[3]: Access = 2304, Miss = 1536, Miss_rate = 0.667, Pending_hits = 0, Reservation_fails = 6531
	L1D_cache_core[4]: Access = 2688, Miss = 1792, Miss_rate = 0.667, Pending_hits = 0, Reservation_fails = 5876
	L1D_cache_core[5]: Access = 3072, Miss = 2048, Miss_rate = 0.667, Pending_hits = 0, Reservation_fails = 5877
	L1D_cache_core[6]: Access = 3072, Miss = 2048, Miss_rate = 0.667, Pending_hits = 0, Reservation_fails = 4851
	L1D_cache_core[7]: Access = 1920, Miss = 1280, Miss_rate = 0.667, Pending_hits = 0, Reservation_fails = 5094
	L1D_cache_core[8]: Access = 3072, Miss = 2048, Miss_rate = 0.667, Pending_hits = 0, Reservation_fails = 4934
	L1D_cache_core[9]: Access = 3072, Miss = 2048, Miss_rate = 0.667, Pending_hits = 0, Reservation_fails = 5174
	L1D_cache_core[10]: Access = 3072, Miss = 2048, Miss_rate = 0.667, Pending_hits = 0, Reservation_fails = 4821
	L1D_cache_core[11]: Access = 3072, Miss = 2048, Miss_rate = 0.667, Pending_hits = 0, Reservation_fails = 4348
	L1D_cache_core[12]: Access = 3072, Miss = 2048, Miss_rate = 0.667, Pending_hits = 0, Reservation_fails = 5113
	L1D_cache_core[13]: Access = 3072, Miss = 2048, Miss_rate = 0.667, Pending_hits = 0, Reservation_fails = 4520
	L1D_cache_core[14]: Access = 2688, Miss = 1792, Miss_rate = 0.667, Pending_hits = 0, Reservation_fails = 6313
	L1D_cache_core[15]: Access = 2304, Miss = 1536, Miss_rate = 0.667, Pending_hits = 0, Reservation_fails = 4387
	L1D_cache_core[16]: Access = 3072, Miss = 2048, Miss_rate = 0.667, Pending_hits = 0, Reservation_fails = 5842
	L1D_cache_core[17]: Access = 1920, Miss = 1280, Miss_rate = 0.667, Pending_hits = 0, Reservation_fails = 5915
	L1D_cache_core[18]: Access = 2688, Miss = 1792, Miss_rate = 0.667, Pending_hits = 0, Reservation_fails = 5981
	L1D_cache_core[19]: Access = 3072, Miss = 2048, Miss_rate = 0.667, Pending_hits = 0, Reservation_fails = 5810
	L1D_cache_core[20]: Access = 2304, Miss = 1536, Miss_rate = 0.667, Pending_hits = 0, Reservation_fails = 6433
	L1D_cache_core[21]: Access = 2688, Miss = 1792, Miss_rate = 0.667, Pending_hits = 0, Reservation_fails = 5605
	L1D_cache_core[22]: Access = 2304, Miss = 1536, Miss_rate = 0.667, Pending_hits = 0, Reservation_fails = 7601
	L1D_cache_core[23]: Access = 1536, Miss = 1024, Miss_rate = 0.667, Pending_hits = 0, Reservation_fails = 5444
	L1D_cache_core[24]: Access = 3072, Miss = 2048, Miss_rate = 0.667, Pending_hits = 0, Reservation_fails = 7026
	L1D_cache_core[25]: Access = 2688, Miss = 1792, Miss_rate = 0.667, Pending_hits = 0, Reservation_fails = 7105
	L1D_cache_core[26]: Access = 1536, Miss = 1024, Miss_rate = 0.667, Pending_hits = 0, Reservation_fails = 5399
	L1D_cache_core[27]: Access = 2688, Miss = 1792, Miss_rate = 0.667, Pending_hits = 0, Reservation_fails = 7482
	L1D_cache_core[28]: Access = 2304, Miss = 1536, Miss_rate = 0.667, Pending_hits = 0, Reservation_fails = 6094
	L1D_cache_core[29]: Access = 1920, Miss = 1280, Miss_rate = 0.667, Pending_hits = 0, Reservation_fails = 6518
	L1D_cache_core[30]: Access = 2304, Miss = 1536, Miss_rate = 0.667, Pending_hits = 0, Reservation_fails = 6136
	L1D_cache_core[31]: Access = 1920, Miss = 1280, Miss_rate = 0.667, Pending_hits = 0, Reservation_fails = 5359
	L1D_cache_core[32]: Access = 1536, Miss = 1024, Miss_rate = 0.667, Pending_hits = 0, Reservation_fails = 5383
	L1D_cache_core[33]: Access = 2304, Miss = 1536, Miss_rate = 0.667, Pending_hits = 0, Reservation_fails = 6037
	L1D_cache_core[34]: Access = 2688, Miss = 1792, Miss_rate = 0.667, Pending_hits = 0, Reservation_fails = 6444
	L1D_cache_core[35]: Access = 1536, Miss = 1024, Miss_rate = 0.667, Pending_hits = 0, Reservation_fails = 5968
	L1D_cache_core[36]: Access = 1920, Miss = 1280, Miss_rate = 0.667, Pending_hits = 0, Reservation_fails = 5227
	L1D_cache_core[37]: Access = 2304, Miss = 1536, Miss_rate = 0.667, Pending_hits = 0, Reservation_fails = 6673
	L1D_cache_core[38]: Access = 2688, Miss = 1792, Miss_rate = 0.667, Pending_hits = 0, Reservation_fails = 5357
	L1D_cache_core[39]: Access = 1536, Miss = 1024, Miss_rate = 0.667, Pending_hits = 0, Reservation_fails = 4545
	L1D_total_cache_accesses = 98304
	L1D_total_cache_misses = 65536
	L1D_total_cache_miss_rate = 0.6667
	L1D_total_cache_pending_hits = 0
	L1D_total_cache_reservation_fails = 230944
	L1D_cache_data_port_util = 0.062
	L1D_cache_fill_port_util = 0.124
L1C_cache:
	L1C_total_cache_accesses = 0
	L1C_total_cache_misses = 0
	L1C_total_cache_pending_hits = 0
	L1C_total_cache_reservation_fails = 0
L1T_cache:
	L1T_total_cache_accesses = 0
	L1T_total_cache_misses = 0
	L1T_total_cache_pending_hits = 0
	L1T_total_cache_reservation_fails = 0

Total_core_cache_stats:
	Total_core_cache_stats_breakdown[Stream_0][GLOBAL_ACC_R][HIT] = 0
	Total_core_cache_stats_breakdown[Stream_0][GLOBAL_ACC_R][HIT_RESERVED] = 0
	Total_core_cache_stats_breakdown[Stream_0][GLOBAL_ACC_R][MISS] = 16384
	Total_core_cache_stats_breakdown[Stream_0][GLOBAL_ACC_R][RESERVATION_FAIL] = 222165
	Total_core_cache_stats_breakdown[Stream_0][GLOBAL_ACC_R][SECTOR_MISS] = 49152
	Total_core_cache_stats_breakdown[Stream_0][GLOBAL_ACC_R][MSHR_HIT] = 0
	Total_core_cache_stats_breakdown[Stream_0][LOCAL_ACC_R][HIT] = 0
	Total_core_cache_stats_breakdown[Stream_0][LOCAL_ACC_R][HIT_RESERVED] = 0
	Total_core_cache_stats_breakdown[Stream_0][LOCAL_ACC_R][MISS] = 0
	Total_core_cache_stats_breakdown[Stream_0][LOCAL_ACC_R][RESERVATION_FAIL] = 0
	Total_core_cache_stats_breakdown[Stream_0][LOCAL_ACC_R][SECTOR_MISS] = 0
	Total_core_cache_stats_breakdown[Stream_0][LOCAL_ACC_R][MSHR_HIT] = 0
	Total_core_cache_stats_breakdown[Stream_0][CONST_ACC_R][HIT] = 0
	Total_core_cache_stats_breakdown[Stream_0][CONST_ACC_R][HIT_RESERVED] = 0
	Total_core_cache_stats_breakdown[Stream_0][CONST_ACC_R][MISS] = 0
	Total_core_cache_stats_breakdown[Stream_0][CONST_ACC_R][RESERVATION_FAIL] = 0
	Total_core_cache_stats_breakdown[Stream_0][CONST_ACC_R][SECTOR_MISS] = 0
	Total_core_cache_stats_breakdown[Stream_0][CONST_ACC_R][MSHR_HIT] = 0
	Total_core_cache_stats_breakdown[Stream_0][TEXTURE_ACC_R][HIT] = 0
	Total_core_cache_stats_breakdown[Stream_0][TEXTURE_ACC_R][HIT_RESERVED] = 0
	Total_core_cache_stats_breakdown[Stream_0][TEXTURE_ACC_R][MISS] = 0
	Total_core_cache_stats_breakdown[Stream_0][TEXTURE_ACC_R][RESERVATION_FAIL] = 0
	Total_core_cache_stats_breakdown[Stream_0][TEXTURE_ACC_R][SECTOR_MISS] = 0
	Total_core_cache_stats_breakdown[Stream_0][TEXTURE_ACC_R][MSHR_HIT] = 0
	Total_core_cache_stats_breakdown[Stream_0][GLOBAL_ACC_W][HIT] = 32768
	Total_core_cache_stats_breakdown[Stream_0][GLOBAL_ACC_W][HIT_RESERVED] = 0
	Total_core_cache_stats_breakdown[Stream_0][GLOBAL_ACC_W][MISS] = 0
	Total_core_cache_stats_breakdown[Stream_0][GLOBAL_ACC_W][RESERVATION_FAIL] = 8779
	Total_core_cache_stats_breakdown[Stream_0][GLOBAL_ACC_W][SECTOR_MISS] = 0
	Total_core_cache_stats_breakdown[Stream_0][GLOBAL_ACC_W][MSHR_HIT] = 0
	Total_core_cache_stats_breakdown[Stream_0][LOCAL_ACC_W][HIT] = 0
	Total_core_cache_stats_breakdown[Stream_0][LOCAL_ACC_W][HIT_RESERVED] = 0
	Total_core_cache_stats_breakdown[Stream_0][LOCAL_ACC_W][MISS] = 0
	Total_core_cache_stats_breakdown[Stream_0][LOCAL_ACC_W][RESERVATION_FAIL] = 0
	Total_core_cache_stats_breakdown[Stream_0][LOCAL_ACC_W][SECTOR_MISS] = 0
	Total_core_cache_stats_breakdown[Stream_0][LOCAL_ACC_W][MSHR_HIT] = 0
	Total_core_cache_stats_breakdown[Stream_0][L1_WRBK_ACC][HIT] = 0
	Total_core_cache_stats_breakdown[Stream_0][L1_WRBK_ACC][HIT_RESERVED] = 0
	Total_core_cache_stats_breakdown[Stream_0][L1_WRBK_ACC][MISS] = 0
	Total_core_cache_stats_breakdown[Stream_0][L1_WRBK_ACC][RESERVATION_FAIL] = 0
	Total_core_cache_stats_breakdown[Stream_0][L1_WRBK_ACC][SECTOR_MISS] = 0
	Total_core_cache_stats_breakdown[Stream_0][L1_WRBK_ACC][MSHR_HIT] = 0
	Total_core_cache_stats_breakdown[Stream_0][L2_WRBK_ACC][HIT] = 0
	Total_core_cache_stats_breakdown[Stream_0][L2_WRBK_ACC][HIT_RESERVED] = 0
	Total_core_cache_stats_breakdown[Stream_0][L2_WRBK_ACC][MISS] = 0
	Total_core_cache_stats_breakdown[Stream_0][L2_WRBK_ACC][RESERVATION_FAIL] = 0
	Total_core_cache_stats_breakdown[Stream_0][L2_WRBK_ACC][SECTOR_MISS] = 0
	Total_core_cache_stats_breakdown[Stream_0][L2_WRBK_ACC][MSHR_HIT] = 0
	Total_core_cache_stats_breakdown[Stream_0][INST_ACC_R][HIT] = 0
	Total_core_cache_stats_breakdown[Stream_0][INST_ACC_R][HIT_RESERVED] = 0
	Total_core_cache_stats_breakdown[Stream_0][INST_ACC_R][MISS] = 0
	Total_core_cache_stats_breakdown[Stream_0][INST_ACC_R][RESERVATION_FAIL] = 0
	Total_core_cache_stats_breakdown[Stream_0][INST_ACC_R][SECTOR_MISS] = 0
	Total_core_cache_stats_breakdown[Stream_0][INST_ACC_R][MSHR_HIT] = 0
	Total_core_cache_stats_breakdown[Stream_0][L1_WR_ALLOC_R][HIT] = 0
	Total_core_cache_stats_breakdown[Stream_0][L1_WR_ALLOC_R][HIT_RESERVED] = 0
	Total_core_cache_stats_breakdown[Stream_0][L1_WR_ALLOC_R][MISS] = 0
	Total_core_cache_stats_breakdown[Stream_0][L1_WR_ALLOC_R][RESERVATION_FAIL] = 0
	Total_core_cache_stats_breakdown[Stream_0][L1_WR_ALLOC_R][SECTOR_MISS] = 0
	Total_core_cache_stats_breakdown[Stream_0][L1_WR_ALLOC_R][MSHR_HIT] = 0
	Total_core_cache_stats_breakdown[Stream_0][L2_WR_ALLOC_R][HIT] = 0
	Total_core_cache_stats_breakdown[Stream_0][L2_WR_ALLOC_R][HIT_RESERVED] = 0
	Total_core_cache_stats_breakdown[Stream_0][L2_WR_ALLOC_R][MISS] = 0
	Total_core_cache_stats_breakdown[Stream_0][L2_WR_ALLOC_R][RESERVATION_FAIL] = 0
	Total_core_cache_stats_breakdown[Stream_0][L2_WR_ALLOC_R][SECTOR_MISS] = 0
	Total_core_cache_stats_breakdown[Stream_0][L2_WR_ALLOC_R][MSHR_HIT] = 0
	Total_core_cache_stats_breakdown[Stream_0][GLOBAL_ACC_R][TOTAL_ACCESS] = 65536
	Total_core_cache_stats_breakdown[Stream_0][GLOBAL_ACC_W][TOTAL_ACCESS] = 32768

Total_core_cache_fail_stats:
	Total_core_cache_fail_stats_breakdown[Stream_0][GLOBAL_ACC_R][MISS_QUEUE_FULL] = 222165
	Total_core_cache_fail_stats_breakdown[Stream_0][GLOBAL_ACC_W][MISS_QUEUE_FULL] = 8779
ctas_completed 256, Shader 0 warp_id issue ditsribution:
warp_id:
0, 1, 2, 3, 4, 5, 6, 7, 8, 9, 10, 11, 12, 13, 14, 15, 16, 17, 18, 19, 20, 21, 22, 23, 24, 25, 26, 27, 28, 29, 30, 31, 32, 33, 34, 35, 36, 37, 38, 39, 40, 41, 42, 43, 44, 45, 46, 47, 48, 49, 50, 51, 52, 53, 54, 55, 56, 57, 58, 59, 60, 61, 62, 63, 
distro:
30, 30, 30, 30, 30, 30, 30, 30, 30, 30, 30, 30, 30, 30, 30, 30, 30, 30, 30, 30, 30, 30, 30, 30, 30, 30, 30, 30, 30, 30, 30, 30, 15, 15, 15, 15, 15, 15, 15, 15, 15, 15, 15, 15, 15, 15, 15, 15, 15, 15, 15, 15, 15, 15, 15, 15, 15, 15, 15, 15, 15, 15, 15, 15, 
gpgpu_n_tot_thrd_icount = 3932160
gpgpu_n_tot_w_icount = 122880
gpgpu_n_stall_shd_mem = 88472
gpgpu_n_mem_read_local = 0
gpgpu_n_mem_write_local = 0
gpgpu_n_mem_read_global = 65536
gpgpu_n_mem_write_global = 32768
gpgpu_n_mem_texture = 0
gpgpu_n_mem_const = 0
gpgpu_n_load_insn  = 524288
gpgpu_n_store_insn = 262144
gpgpu_n_shmem_insn = 0
gpgpu_n_sstarr_insn = 0
gpgpu_n_tex_insn = 0
gpgpu_n_const_mem_insn = 0
gpgpu_n_param_mem_insn = 0
gpgpu_n_shmem_bkconflict = 0
gpgpu_n_cache_bkconflict = 0
gpgpu_n_intrawarp_mshr_merge = 0
gpgpu_n_cmem_portconflict = 0
gpgpu_stall_shd_mem[c_mem][resource_stall] = 0
gpgpu_stall_shd_mem[s_mem][bk_conf] = 0
gpgpu_stall_shd_mem[gl_mem][resource_stall] = 88472
gpgpu_stall_shd_mem[gl_mem][coal_stall] = 0
gpgpu_stall_shd_mem[gl_mem][data_port_stall] = 0
gpu_reg_bank_conflict_stalls = 0
Warp Occupancy Distribution:
Stall:349631	W0_Idle:303473	W0_Scoreboard:1348084	W1:0	W2:0	W3:0	W4:0	W5:0	W6:0	W7:0	W8:0	W9:0	W10:0	W11:0	W12:0	W13:0	W14:0	W15:0	W16:0	W17:0	W18:0	W19:0	W20:0	W21:0	W22:0	W23:0	W24:0	W25:0	W26:0	W27:0	W28:0	W29:0	W30:0	W31:0	W32:106496
single_issue_nums: WS0:30720	WS1:30720	WS2:30720	WS3:30720	
dual_issue_nums: WS0:0	WS1:0	WS2:0	WS3:0	
traffic_breakdown_coretomem[GLOBAL_ACC_R] = 524288 {8:65536,}
traffic_breakdown_coretomem[GLOBAL_ACC_W] = 1310720 {40:32768,}
traffic_breakdown_memtocore[GLOBAL_ACC_R] = 2621440 {40:65536,}
traffic_breakdown_memtocore[GLOBAL_ACC_W] = 262144 {8:32768,}
maxmflatency = 3887 
max_icnt2mem_latency = 3061 
maxmrqlatency = 802 
max_icnt2sh_latency = 804 
averagemflatency = 1140 
avg_icnt2mem_latency = 677 
avg_mrq_latency = 36 
avg_icnt2sh_latency = 106 
mrq_lat_table:9401 	9842 	6237 	7186 	8256 	11027 	10161 	2954 	407 	65 	0 	0 	0 	0 	0 	0 	0 	0 	0 	0 	0 	0 	0 	0 	0 	0 	0 	0 	0 	0 	0 	0 	
dq_lat_table:0 	0 	0 	0 	0 	0 	0 	0 	0 	0 	0 	0 	0 	0 	0 	0 	0 	0 	0 	0 	0 	0 	0 	0 	0 	0 	0 	0 	0 	0 	0 	0 	
mf_lat_table:0 	0 	0 	0 	0 	0 	0 	4098 	14910 	32982 	34898 	11416 	0 	0 	0 	0 	0 	0 	0 	0 	0 	0 	0 	0 	0 	0 	0 	0 	0 	0 	0 	0 	
icnt2mem_lat_table:0 	0 	0 	0 	8469 	5508 	7944 	11731 	15036 	26788 	18457 	4371 	0 	0 	0 	0 	0 	0 	0 	0 	0 	0 	0 	0 	
icnt2sh_lat_table:0 	26581 	8171 	5930 	6478 	7928 	12563 	17515 	11177 	1961 	0 	0 	0 	0 	0 	0 	0 	0 	0 	0 	0 	0 	0 	0 	
mf_lat_pw_table:0 	0 	0 	0 	0 	0 	0 	0 	1 	6 	6 	0 	0 	0 	0 	0 	0 	0 	0 	0 	0 	0 	0 	0 	0 	0 	0 	0 	0 	0 	0 	0 	
maximum concurrent accesses to same row:
dram[0]:        68        72        96        96        84        71        76        69        78        82        16        28        67        25        14        23 
dram[1]:        83        73        96        96        86        49        79        70        70        77        24        29        56        42        22        25 
dram[2]:        69        88        96        96        83        47        80        78        65        79        40        29        44        37        41        30 
dram[3]:        64        60        96        96        75        43        80        78        77        76        17        35        63        35        29        39 
dram[4]:        72        82        96        96        79        36        80        82        78        78        26        27        43        49        28        31 
dram[5]:        76        74        96        96        84        42        79        88        74        78        18        27        69        53        24        46 
dram[6]:        76        73        96        96        81        48        76        72        72        76        19        26        54        51        22        33 
dram[7]:        72        78        96        96        90        46        75        76        75        85        26        27        43        51        19        33 
dram[8]:        28        32        64        64        64        64        32        38        64        64        40        61        18        27        43        41 
dram[9]:        32        29        64        64        64        64        30        40        63        60        37        48        24        25        38        21 
dram[10]:        32        30        64        64        64        64        28        46        63        60        45        48        25        30        37        24 
dram[11]:        28        32        64        64        64        64        32        36        64        64        26        63        24        30        39        34 
dram[12]:        32        32        64        64        64        64        32        42        64        60        29        40        22        33        54        32 
dram[13]:        24        32        64        64        64        64        32        30        64        64        44        57        18        31        52        25 
dram[14]:        28        32        64        64        64        64        32        30        64        64        37        58        17        28        51        20 
dram[15]:        32        28        64        64        64        64        30        32        64        60        48        45        25        34        51        22 
dram[16]:        63        64        32        32        18        32        48        64        64        41        43        35        42        39        17        18 
dram[17]:        59        48        32        32        26        32        47        60        64        64        40        33        42        39        19        31 
dram[18]:        40        52        32        32        21        32        46        64        64        64        49        31        51        38        40        26 
dram[19]:        56        64        32        32        24        32        50        60        64        48        45        22        54        36        18        16 
dram[20]:        64        52        32        32        28        30        42        64        64        64        27        18        52        40        20        14 
dram[21]:        42        48        32        32        31        30        40        64        64        30        25        21        48        39        30        24 
dram[22]:        40        64        32        32        31        30        42        60        64        37        44        23        54        41        18        29 
dram[23]:        64        52        32        32        32        32        42        64        64        64        22        44        50        36        19        26 
maximum service time to same row:
dram[0]:      2164      1448      2957      2891      2245      2280      1148       734      1743      2566      1584      1272      1616      1353      1425      1282 
dram[1]:      2473      1805      2897      2517      1263      2579       768      1197      2369      1868      1602      1311      1675      1364      1424      1287 
dram[2]:      1725      2639      2927      2833      1224      2857       600       800      2212      1963      2010      1680      1702      1366      1425      1292 
dram[3]:      1292      1457      2953      2855      1427      1690      1204       762      1798      2327      1556      1480      1696      1370      1474      1350 
dram[4]:      1273      1400      3096      2737      1214      2550       677       790      2098      1831      1560      1483      1459      1233      1380      1414 
dram[5]:       969      1576      2997      2877      2308      1317      1169       934      1920      1937      1340      1594      1448      1217      1408      1435 
dram[6]:      1124      1210      3089      2897      1179      2747       987       785      1891      2031      1487      1562      1481      1288      1388      1409 
dram[7]:      1736      1390      3105      2867      2174      2877       645       778      2077      2324      1546      1536      1446      1230      1404      1433 
dram[8]:      2918      2881      2060      2147      4430      4369      2256      2553      3061      3689      3516      2726      1412      1414      1415      1323 
dram[9]:      3600      2616      2105      2190      4402      4349      3345      2833      3072      3328      3454      4143      1412      1417      1408      1216 
dram[10]:      3594      2786      2253      2052      4428      4392      3224      2467      3095      2996      3512      4098      1414      1422      1515      1213 
dram[11]:      1697      2864      2254      2057      4430      4427      2386      2394      3162      3884      3333      2561      1537      1433      1418      1212 
dram[12]:      3567      3118      2408      2306      4332      4365      3351      3248      2891      2833      3231      4019      1363      1198      1514      1388 
dram[13]:      2924      3088      2316      2311      4380      4381      2154      2400      2906      3861      3501      2376      1371      1201      1537      1402 
dram[14]:      2301      3187      2415      2347      4393      4425      2213      2356      2904      3636      3341      2448      1463      1202      1606      1407 
dram[15]:      3569      2669      2406      2334      4262      4310      3346      3110      2912      2938      3516      4080      1369      1425      1609      1384 
dram[16]:      3014      2962      3271      3032      2455      3292      2782      3736      3871      2684      3395      3343      1210      1432      1607      1346 
dram[17]:      2961      1458      3484      3067      3670      4298      2948      2231      3581      4026      2375      2979      1219      1417      1590      1435 
dram[18]:      1382      2695      3504      3119      3607      4267      3003      2280      3792      3919      2313      2949      1216      1419      1513      1364 
dram[19]:      2681      2931      3400      2952      3002      3272      2903      3676      3891      3302      3059      3025      1321      1424      1481      1345 
dram[20]:      3039      2289      3431      3059      3785      4210      2952      2144      3471      3933      2467      2571      1198      1169      1678      1546 
dram[21]:      2414      1464      3261      3134      3432      4342      3153      3683      3780      3073      2726      3340      1195      1191      1672      1531 
dram[22]:      1392      3203      3457      3131      2255      4212      3207      3711      3770      3354      2800      2760      1301      1172      1572      1553 
dram[23]:      3104      2260      3458      3257      4017      4316      2847      2092      3907      3868      2463      2493      1199      1168      1585      1522 
average row accesses per activate:
dram[0]: 26.666666 19.692308 96.000000 96.000000  9.333333 10.580646  8.347826 10.105263  9.818182 12.705882  8.727273  9.931034 12.800000  8.727273  8.000000 10.105263 
dram[1]: 21.818182 23.272728 96.000000 96.000000  8.842105  9.371428  8.727273 12.000000 16.615385 11.368421  8.727273  9.600000  9.600000 11.294118 10.666667  9.142858 
dram[2]: 18.461538 23.272728 96.000000 96.000000  8.615385 10.933333  9.365853 13.714286 14.400000 12.000000 11.520000 11.076923 10.666667  9.142858 10.666667 11.294118 
dram[3]: 14.117647 19.692308 96.000000 96.000000  8.400000 10.250000 10.666667 12.000000 12.705882 12.705882  8.727273  9.290322 14.769231  8.347826  9.600000  9.600000 
dram[4]: 18.461538 15.058824 96.000000 96.000000  9.081081  9.939394  8.347826 12.387096 19.636364 14.400000  8.727273 10.666667 10.105263 17.454546  8.347826 13.714286 
dram[5]: 18.461538 28.444445 96.000000 96.000000 10.500000  9.111111 10.105263 12.800000 15.428572 11.368421  8.228572  9.600000 11.294118 13.714286  8.727273 16.000000 
dram[6]: 14.117647 28.444445 96.000000 96.000000  8.400000  9.647058  8.930233  9.600000 11.368421 12.000000  8.727273  9.600000 11.294118 13.714286  9.142858 12.800000 
dram[7]: 18.461538 15.058824 96.000000 96.000000  9.882353 10.933333  8.533334 12.387096 16.615385 18.000000  8.228572 10.666667 10.105263 13.714286 10.666667 12.800000 
dram[8]: 19.200001 32.000000 64.000000 64.000000 11.294118 27.428572  7.272727  8.421053 40.000000 37.333332 12.307693 16.000000 16.000000 24.000000 12.000000  9.600000 
dram[9]: 32.000000 13.714286 64.000000 64.000000 13.714286 38.400002  8.421053  8.888889 24.000000 28.000000 10.666667 22.857143 16.000000  9.600000 12.000000  8.727273 
dram[10]: 32.000000 19.200001 64.000000 64.000000 12.000000 21.333334  7.619048  8.888889 24.000000 28.000000 11.428572 22.857143 16.000000 10.666667 12.000000  8.727273 
dram[11]: 13.714286 32.000000 64.000000 64.000000 10.666667 21.333334  7.272727  8.421053 40.000000 37.333332 10.666667 26.666666 24.000000 24.000000 12.000000  6.000000 
dram[12]: 32.000000 32.000000 64.000000 64.000000 12.800000 27.428572  9.411765 10.000000 40.000000 28.000000 11.428572 17.777779  8.000000  8.000000 13.714286  7.384615 
dram[13]: 10.666667 32.000000 64.000000 64.000000 12.800000 21.333334  7.272727  8.421053 40.000000 37.333332 11.428572 12.307693  8.000000  9.600000 19.200001  8.727273 
dram[14]: 13.714286 32.000000 64.000000 64.000000 11.294118 27.428572  7.272727  9.411765 40.000000 37.333332 17.777779 14.545455 12.000000  6.857143 10.666667  7.384615 
dram[15]: 32.000000 10.666667 64.000000 64.000000 13.714286 27.428572  8.421053 13.333333 40.000000 18.666666 11.428572 22.857143 16.000000 12.000000 10.666667  7.384615 
dram[16]: 33.599998 56.000000 32.000000 32.000000  5.454545 10.181818  8.000000 28.000000 40.000000 16.000000 18.285715  9.846154  8.727273  6.857143  8.000000  8.727273 
dram[17]: 18.666666 33.599998 32.000000 32.000000  5.714286 11.200000  8.615385 13.176471 40.000000 37.333332  8.533334  9.846154  7.384615  8.727273  7.384615 10.666667 
dram[18]: 33.599998 24.000000 32.000000 32.000000  6.315790  9.333333  9.333333 22.400000 40.000000 37.333332 11.636364  8.533334  8.727273 10.666667  9.600000  7.384615 
dram[19]: 24.000000 56.000000 32.000000 32.000000  5.714286  8.615385  9.333333 22.400000 40.000000 22.400000 14.222222  7.529412 10.666667  8.000000  8.000000  8.727273 
dram[20]: 56.000000 33.599998 32.000000 32.000000  8.000000  9.333333 10.181818 18.666666 40.000000 37.333332 11.636364  8.000000 13.714286  7.384615  7.384615  5.647059 
dram[21]: 24.000000 24.000000 32.000000 32.000000 13.333333  9.333333 10.181818 28.000000 40.000000 16.000000 14.222222  8.533334 19.200001  6.400000  8.727273  8.727273 
dram[22]: 18.666666 56.000000 32.000000 32.000000  6.315790 14.000000  9.333333 18.666666 40.000000 12.444445 18.285715  8.533334 13.714286 12.000000  8.727273  6.400000 
dram[23]: 56.000000 33.599998 32.000000 32.000000 30.000000 18.666666  9.333333 18.666666 40.000000 37.333332  9.846154 12.800000 10.666667  7.384615  8.727273  5.647059 
average row locality = 65536/5078 = 12.905869
number of total memory accesses made:
dram[0]:         0         0         0         0         0         0         0         0         0         0         0         0         0         0         0         0 
dram[1]:         0         0         0         0         0         0         0         0         0         0         0         0         0         0         0         0 
dram[2]:         0         0         0         0         0         0         0         0         0         0         0         0         0         0         0         0 
dram[3]:         0         0         0         0         0         0         0         0         0         0         0         0         0         0         0         0 
dram[4]:         0         0         0         0         0         0         0         0         0         0         0         0         0         0         0         0 
dram[5]:         0         0         0         0         0         0         0         0         0         0         0         0         0         0         0         0 
dram[6]:         0         0         0         0         0         0         0         0         0         0         0         0         0         0         0         0 
dram[7]:         0         0         0         0         0         0         0         0         0         0         0         0         0         0         0         0 
dram[8]:         0         0         0         0         0         0         0         0         0         0         0         0         0         0         0         0 
dram[9]:         0         0         0         0         0         0         0         0         0         0         0         0         0         0         0         0 
dram[10]:         0         0         0         0         0         0         0         0         0         0         0         0         0         0         0         0 
dram[11]:         0         0         0         0         0         0         0         0         0         0         0         0         0         0         0         0 
dram[12]:         0         0         0         0         0         0         0         0         0         0         0         0         0         0         0         0 
dram[13]:         0         0         0         0         0         0         0         0         0         0         0         0         0         0         0         0 
dram[14]:         0         0         0         0         0         0         0         0         0         0         0         0         0         0         0         0 
dram[15]:         0         0         0         0         0         0         0         0         0         0         0         0         0         0         0         0 
dram[16]:         0         0         0         0         0         0         0         0         0         0         0         0         0         0         0         0 
dram[17]:         0         0         0         0         0         0         0         0         0         0         0         0         0         0         0         0 
dram[18]:         0         0         0         0         0         0         0         0         0         0         0         0         0         0         0         0 
dram[19]:         0         0         0         0         0         0         0         0         0         0         0         0         0         0         0         0 
dram[20]:         0         0         0         0         0         0         0         0         0         0         0         0         0         0         0         0 
dram[21]:         0         0         0         0         0         0         0         0         0         0         0         0         0         0         0         0 
dram[22]:         0         0         0         0         0         0         0         0         0         0         0         0         0         0         0         0 
dram[23]:         0         0         0         0         0         0         0         0         0         0         0         0         0         0         0         0 
total accesses: 0
min_bank_accesses = 0!
min_chip_accesses = 0!
number of total read accesses:
dram[0]:       192       192       192       192       232       240       288       288       288       288       264       280       288       288       288       288 
dram[1]:       192       192       192       192       232       240       288       288       288       288       264       280       288       288       288       288 
dram[2]:       192       192       192       192       232       240       288       288       288       288       264       280       288       288       288       288 
dram[3]:       192       192       192       192       232       240       288       288       288       288       264       280       288       288       288       288 
dram[4]:       192       192       192       192       232       240       288       288       288       288       264       280       288       288       288       288 
dram[5]:       192       192       192       192       232       240       288       288       288       288       264       280       288       288       288       288 
dram[6]:       192       192       192       192       232       240       288       288       288       288       264       280       288       288       288       288 
dram[7]:       192       192       192       192       232       240       288       288       288       288       264       280       288       288       288       288 
dram[8]:       128       128        64        64        64        64       192       192       192       192       120       112        96        96       192       192 
dram[9]:       128       128        64        64        64        64       192       192       192       192       120       112        96        96       192       192 
dram[10]:       128       128        64        64        64        64       192       192       192       192       120       112        96        96       192       192 
dram[11]:       128       128        64        64        64        64       192       192       192       192       120       112        96        96       192       192 
dram[12]:       128       128        64        64        64        64       192       192       192       192       120       112        96        96       192       192 
dram[13]:       128       128        64        64        64        64       192       192       192       192       120       112        96        96       192       192 
dram[14]:       128       128        64        64        64        64       192       192       192       192       120       112        96        96       192       192 
dram[15]:       128       128        64        64        64        64       192       192       192       192       120       112        96        96       192       192 
dram[16]:        64        64       128       128       144       152        96        96        96        96       192       184       192       192        96        96 
dram[17]:        64        64       128       128       144       152        96        96        96        96       192       184       192       192        96        96 
dram[18]:        64        64       128       128       144       152        96        96        96        96       192       184       192       192        96        96 
dram[19]:        64        64       128       128       144       152        96        96        96        96       192       184       192       192        96        96 
dram[20]:        64        64       128       128       144       152        96        96        96        96       192       184       192       192        96        96 
dram[21]:        64        64       128       128       144       152        96        96        96        96       192       184       192       192        96        96 
dram[22]:        64        64       128       128       144       152        96        96        96        96       192       184       192       192        96        96 
dram[23]:        64        64       128       128       144       152        96        96        96        96       192       184       192       192        96        96 
total dram reads = 65536
bank skew: 288/64 = 4.50
chip skew: 4088/2016 = 2.03
number of total write accesses:
dram[0]:         0         0         0         0         0         0         0         0         0         0         0         0         0         0         0         0 
dram[1]:         0         0         0         0         0         0         0         0         0         0         0         0         0         0         0         0 
dram[2]:         0         0         0         0         0         0         0         0         0         0         0         0         0         0         0         0 
dram[3]:         0         0         0         0         0         0         0         0         0         0         0         0         0         0         0         0 
dram[4]:         0         0         0         0         0         0         0         0         0         0         0         0         0         0         0         0 
dram[5]:         0         0         0         0         0         0         0         0         0         0         0         0         0         0         0         0 
dram[6]:         0         0         0         0         0         0         0         0         0         0         0         0         0         0         0         0 
dram[7]:         0         0         0         0         0         0         0         0         0         0         0         0         0         0         0         0 
dram[8]:         0         0         0         0         0         0         0         0         0         0         0         0         0         0         0         0 
dram[9]:         0         0         0         0         0         0         0         0         0         0         0         0         0         0         0         0 
dram[10]:         0         0         0         0         0         0         0         0         0         0         0         0         0         0         0         0 
dram[11]:         0         0         0         0         0         0         0         0         0         0         0         0         0         0         0         0 
dram[12]:         0         0         0         0         0         0         0         0         0         0         0         0         0         0         0         0 
dram[13]:         0         0         0         0         0         0         0         0         0         0         0         0         0         0         0         0 
dram[14]:         0         0         0         0         0         0         0         0         0         0         0         0         0         0         0         0 
dram[15]:         0         0         0         0         0         0         0         0         0         0         0         0         0         0         0         0 
dram[16]:         0         0         0         0         0         0         0         0         0         0         0         0         0         0         0         0 
dram[17]:         0         0         0         0         0         0         0         0         0         0         0         0         0         0         0         0 
dram[18]:         0         0         0         0         0         0         0         0         0         0         0         0         0         0         0         0 
dram[19]:         0         0         0         0         0         0         0         0         0         0         0         0         0         0         0         0 
dram[20]:         0         0         0         0         0         0         0         0         0         0         0         0         0         0         0         0 
dram[21]:         0         0         0         0         0         0         0         0         0         0         0         0         0         0         0         0 
dram[22]:         0         0         0         0         0         0         0         0         0         0         0         0         0         0         0         0 
dram[23]:         0         0         0         0         0         0         0         0         0         0         0         0         0         0         0         0 
total dram writes = 0
min_bank_accesses = 0!
min_chip_accesses = 0!
average mf latency per bank:
dram[0]:       2656      2796      2487      2494      1909      1858      1854      1996      1476      1594      1756      1962      2246      2527      2332      2523
dram[1]:       2657      2908      2457      2431      1817      1888      1772      1943      1245      1340      1699      1832      2310      2571      2374      2561
dram[2]:       2637      2852      2486      2454      1754      1939      1782      2022      1423      1552      1732      1911      2265      2556      2384      2590
dram[3]:       2600      2731      2258      2307      1775      1894      1782      1908      1266      1429      1647      1890      2239      2480      2347      2518
dram[4]:       2688      2846      2553      2575      1914      1985      1845      2019      1458      1573      1727      1882      2270      2533      2317      2492
dram[5]:       2659      2760      2466      2506      1837      1830      1788      1960      1494      1662      1813      1984      2270      2478      2279      2486
dram[6]:       2670      2835      2434      2428      1881      1848      1764      1859      1185      1362      1657      1832      2252      2491      2292      2497
dram[7]:       2734      2887      2628      2623      1896      1959      1822      2036      1555      1671      1802      1994      2348      2575      2349      2557
dram[8]:       1853      1848      1587      1432      1298      1181      1199      1145       805       803      1100      1276      1604      1457      1596      1476
dram[9]:       1798      1790      1618      1403      1231      1084      1044       993       788       793       962      1191      1574      1456      1563      1466
dram[10]:       1800      1782      1627      1452      1366      1163      1119      1103       789       744       990      1222      1529      1419      1578      1474
dram[11]:       1841      1881      1593      1434      1232      1135      1129      1093       780       765      1039      1168      1642      1518      1613      1473
dram[12]:       1818      1792      1586      1545      1366      1229      1118      1099       772       782       971      1216      1619      1493      1578      1480
dram[13]:       1805      1766      1516      1513      1275      1206      1175      1123       712       740      1044      1205      1557      1428      1512      1365
dram[14]:       1804      1806      1539      1511      1252      1261      1224      1158       752       753      1073      1198      1646      1479      1615      1485
dram[15]:       1826      1807      1599      1551      1394      1242      1119      1107       791       793       992      1247      1641      1467      1593      1485
dram[16]:       1486      1434      1338      1307      1228      1189      1046      1139       770       900      1293      1199      1476      1419      1700      1555
dram[17]:       1524      1569      1363      1320      1166      1141      1119      1081       676       875      1258      1211      1493      1429      1682      1508
dram[18]:       1583      1553      1400      1345      1181      1173      1101      1093       725       915      1285      1223      1542      1468      1699      1563
dram[19]:       1392      1482      1298      1332      1198      1174       980      1094       652       782      1194      1108      1394      1359      1578      1433
dram[20]:       1506      1528      1362      1310      1127      1114      1081      1086       638       839      1201      1154      1493      1446      1683      1529
dram[21]:       1489      1514      1371      1313      1208      1159       959      1107       780       921      1227      1138      1532      1494      1766      1601
dram[22]:       1456      1537      1406      1300      1219      1201       994      1065       727       886      1233      1149      1501      1485      1754      1542
dram[23]:       1572      1539      1361      1297      1173      1147      1085      1065       726       877      1224      1173      1530      1464      1696      1612
maximum mf latency per bank:
dram[0]:       3463      3557      3675      3243      3694      3186      3390      3339      2908      2878      3015      2981      3070      3777      3263      3782
dram[1]:       3191      3589      3481      3249      3648      3496      3556      3301      3082      2882      3198      3233      3272      3677      3263      3743
dram[2]:       3105      3536      3464      3202      3701      3367      3586      3373      3146      2998      3283      2997      3029      3627      3301      3814
dram[3]:       3005      3543      3365      3112      3707      3444      3487      3455      2921      2843      3108      2992      3392      3739      3310      3696
[...]
GrpLevelPara = 1.860626 

BW Util details:
bwutil = 0.229440 
total_CMD = 17887 
util_bw = 4104 
Wasted_Col = 1139 
Wasted_Row = 353 
Idle = 12291 

BW Util Bottlenecks: 
RCDc_limit = 939 
RCDWRc_limit = 0 
WTRc_limit = 0 
RTWc_limit = 0 
CCDLc_limit = 803 
rwq = 0 
CCDLc_limit_alone = 803 
WTRc_limit_alone = 0 
RTWc_limit_alone = 0 

Commands details: 
total_CMD = 17887 
n_nop = 13608 
Read = 4104 
Write = 0 
L2_Alloc = 0 
L2_WB = 0 
n_act = 204 
n_pre = 188 
n_ref = 0 
n_req = 4104 
total_req = 4104 

Dual Bus Interface Util: 
issued_total_row = 392 
issued_total_col = 4104 
Row_Bus_Util =  0.021915 
CoL_Bus_Util = 0.229440 
Either_Row_CoL_Bus_Util = 0.239224 
Issued_on_Two_Bus_Simul_Util = 0.012132 
issued_two_Eff = 0.050713 
queue_avg = 1.990608 


dram_util_bins: 0 0 0 0 0 0 0 0 0 0
dram_eff_bins: 0 0 0 0 0 0 0 0 0 0
mrqq: max=33 avg=1.99061
Memory Partition 20: 
Cache L2_bank_040:
MSHR contents

Cache L2_bank_041:
MSHR contents

In Dram Latency Queue (total = 0): 
DRAM[20]: 16 bks, busW=16 BL=2 CL=12, tRRD=3 tCCD=1, tRCD=12 tRAS=28 tRP=12 tRC=40
n_cmd=17887 n_nop=13611 n_act=200 n_pre=184 n_ref_event=0 n_req=4104 n_rd=4104 n_rd_L2_A=0 n_write=0 n_wr_bk=0 bw_util=0.2294
n_activity=8104 dram_eff=0.5064
bk0: 232a 17512i bk1: 232a 17550i bk2: 192a 17512i bk3: 192a 17539i bk4: 272a 17026i bk5: 256a 17205i bk6: 352a 16727i bk7: 352a 17034i bk8: 248a 17526i bk9: 240a 17574i bk10: 288a 17067i bk11: 288a 16928i bk12: 256a 17239i bk13: 256a 17191i bk14: 224a 17085i bk15: 224a 16856i 

------------------------------------------------------------------------

Row_Buffer_Locality = 0.951267
Row_Buffer_Locality_read = 0.951267
Row_Buffer_Locality_write = -nan
Bank_Level_Parallism = 2.616847
Bank_Level_Parallism_Col = 2.172842
Bank_Level_Parallism_Ready = 1.641082
write_to_read_ratio_blp_rw_average = 0.000000
GrpLevelPara = 1.781131 

BW Util details:
bwutil = 0.229440 
total_CMD = 17887 
util_bw = 4104 
Wasted_Col = 1171 
Wasted_Row = 352 
Idle = 12260 

BW Util Bottlenecks: 
RCDc_limit = 993 
RCDWRc_limit = 0 
WTRc_limit = 0 
RTWc_limit = 0 
CCDLc_limit = 753 
rwq = 0 
CCDLc_limit_alone = 753 
WTRc_limit_alone = 0 
RTWc_limit_alone = 0 

Commands details: 
total_CMD = 17887 
n_nop = 13611 
Read = 4104 
Write = 0 
L2_Alloc = 0 
L2_WB = 0 
n_act = 200 
n_pre = 184 
n_ref = 0 
n_req = 4104 
total_req = 4104 

Dual Bus Interface Util: 
issued_total_row = 384 
issued_total_col = 4104 
Row_Bus_Util =  0.021468 
CoL_Bus_Util = 0.229440 
Either_Row_CoL_Bus_Util = 0.239056 
Issued_on_Two_Bus_Simul_Util = 0.011852 
issued_two_Eff = 0.049579 
queue_avg = 2.009001 


dram_util_bins: 0 0 0 0 0 0 0 0 0 0
dram_eff_bins: 0 0 0 0 0 0 0 0 0 0
mrqq: max=31 avg=2.009
Memory Partition 21: 
Cache L2_bank_042:
MSHR contents

Cache L2_bank_043:
MSHR contents

In Dram Latency Queue (total = 0): 
DRAM[21]: 16 bks, busW=16 BL=2 CL=12, tRRD=3 tCCD=1, tRCD=12 tRAS=28 tRP=12 tRC=40
n_cmd=17887 n_nop=13644 n_act=189 n_pre=173 n_ref_event=0 n_req=4104 n_rd=4104 n_rd_L2_A=0 n_write=0 n_wr_bk=0 bw_util=0.2294
n_activity=7958 dram_eff=0.5157
bk0: 232a 17276i bk1: 232a 17389i bk2: 192a 17587i bk3: 192a 17530i bk4: 272a 17101i bk5: 256a 16970i bk6: 352a 16725i bk7: 352a 17178i bk8: 248a 17571i bk9: 240a 17465i bk10: 288a 17216i bk11: 288a 16992i bk12: 256a 17370i bk13: 256a 17099i bk14: 224a 17205i bk15: 224a 17129i 

------------------------------------------------------------------------

Row_Buffer_Locality = 0.953947
Row_Buffer_Locality_read = 0.953947
Row_Buffer_Locality_write = -nan
Bank_Level_Parallism = 2.659754
Bank_Level_Parallism_Col = 2.238475
Bank_Level_Parallism_Ready = 1.709064
write_to_read_ratio_blp_rw_average = 0.000000
GrpLevelPara = 1.846528 

BW Util details:
bwutil = 0.229440 
total_CMD = 17887 
util_bw = 4104 
Wasted_Col = 1061 
Wasted_Row = 284 
Idle = 12438 

BW Util Bottlenecks: 
RCDc_limit = 837 
RCDWRc_limit = 0 
WTRc_limit = 0 
RTWc_limit = 0 
CCDLc_limit = 740 
rwq = 0 
CCDLc_limit_alone = 740 
WTRc_limit_alone = 0 
RTWc_limit_alone = 0 

Commands details: 
total_CMD = 17887 
n_nop = 13644 
Read = 4104 
Write = 0 
L2_Alloc = 0 
L2_WB = 0 
n_act = 189 
n_pre = 173 
n_ref = 0 
n_req = 4104 
total_req = 4104 

Dual Bus Interface Util: 
issued_total_row = 362 
issued_total_col = 4104 
Row_Bus_Util =  0.020238 
CoL_Bus_Util = 0.229440 
Either_Row_CoL_Bus_Util = 0.237211 
Issued_on_Two_Bus_Simul_Util = 0.012467 
issued_two_Eff = 0.052557 
queue_avg = 2.116118 


dram_util_bins: 0 0 0 0 0 0 0 0 0 0
dram_eff_bins: 0 0 0 0 0 0 0 0 0 0
mrqq: max=26 avg=2.11612
Memory Partition 22: 
Cache L2_bank_044:
MSHR contents

Cache L2_bank_045:
MSHR contents

In Dram Latency Queue (total = 0): 
DRAM[22]: 16 bks, busW=16 BL=2 CL=12, tRRD=3 tCCD=1, tRCD=12 tRAS=28 tRP=12 tRC=40
n_cmd=17887 n_nop=13632 n_act=198 n_pre=182 n_ref_event=0 n_req=4104 n_rd=4104 n_rd_L2_A=0 n_write=0 n_wr_bk=0 bw_util=0.2294
n_activity=7918 dram_eff=0.5183
bk0: 232a 17281i bk1: 232a 17611i bk2: 192a 17596i bk3: 192a 17602i bk4: 272a 16939i bk5: 256a 17275i bk6: 352a 16696i bk7: 352a 17061i bk8: 248a 17569i bk9: 240a 17371i bk10: 288a 17237i bk11: 288a 16980i bk12: 256a 17301i bk13: 256a 17425i bk14: 224a 17208i bk15: 224a 16939i 

------------------------------------------------------------------------

Row_Buffer_Locality = 0.951754
Row_Buffer_Locality_read = 0.951754
Row_Buffer_Locality_write = -nan
Bank_Level_Parallism = 2.594521
Bank_Level_Parallism_Col = 2.112556
Bank_Level_Parallism_Ready = 1.569201
write_to_read_ratio_blp_rw_average = 0.000000
GrpLevelPara = 1.771589 

BW Util details:
bwutil = 0.229440 
total_CMD = 17887 
util_bw = 4104 
Wasted_Col = 1076 
Wasted_Row = 295 
Idle = 12412 

BW Util Bottlenecks: 
RCDc_limit = 858 
RCDWRc_limit = 0 
WTRc_limit = 0 
RTWc_limit = 0 
CCDLc_limit = 746 
rwq = 0 
CCDLc_limit_alone = 746 
WTRc_limit_alone = 0 
RTWc_limit_alone = 0 

Commands details: 
total_CMD = 17887 
n_nop = 13632 
Read = 4104 
Write = 0 
L2_Alloc = 0 
L2_WB = 0 
n_act = 198 
n_pre = 182 
n_ref = 0 
n_req = 4104 
total_req = 4104 

Dual Bus Interface Util: 
issued_total_row = 380 
issued_total_col = 4104 
Row_Bus_Util =  0.021244 
CoL_Bus_Util = 0.229440 
Either_Row_CoL_Bus_Util = 0.237882 
Issued_on_Two_Bus_Simul_Util = 0.012803 
issued_two_Eff = 0.053819 
queue_avg = 1.826634 


dram_util_bins: 0 0 0 0 0 0 0 0 0 0
dram_eff_bins: 0 0 0 0 0 0 0 0 0 0
mrqq: max=30 avg=1.82663
Memory Partition 23: 
Cache L2_bank_046:
MSHR contents

Cache L2_bank_047:
MSHR contents

In Dram Latency Queue (total = 0): 
DRAM[23]: 16 bks, busW=16 BL=2 CL=12, tRRD=3 tCCD=1, tRCD=12 tRAS=28 tRP=12 tRC=40
n_cmd=17887 n_nop=13664 n_act=181 n_pre=165 n_ref_event=0 n_req=4104 n_rd=4104 n_rd_L2_A=0 n_write=0 n_wr_bk=0 bw_util=0.2294
n_activity=7953 dram_eff=0.516
bk0: 232a 17506i bk1: 232a 17476i bk2: 192a 17490i bk3: 192a 17485i bk4: 272a 17372i bk5: 256a 17293i bk6: 352a 16683i bk7: 352a 17053i bk8: 248a 17582i bk9: 240a 17575i bk10: 288a 16952i bk11: 288a 17095i bk12: 256a 17211i bk13: 256a 17186i bk14: 224a 17184i bk15: 224a 16893i 

------------------------------------------------------------------------

Row_Buffer_Locality = 0.955897
Row_Buffer_Locality_read = 0.955897
Row_Buffer_Locality_write = -nan
Bank_Level_Parallism = 2.606471
Bank_Level_Parallism_Col = 2.191498
Bank_Level_Parallism_Ready = 1.683236
write_to_read_ratio_blp_rw_average = 0.000000
GrpLevelPara = 1.823575 

BW Util details:
bwutil = 0.229440 
total_CMD = 17887 
util_bw = 4104 
Wasted_Col = 1097 
Wasted_Row = 270 
Idle = 12416 

BW Util Bottlenecks: 
RCDc_limit = 816 
RCDWRc_limit = 0 
WTRc_limit = 0 
RTWc_limit = 0 
CCDLc_limit = 733 
rwq = 0 
CCDLc_limit_alone = 733 
WTRc_limit_alone = 0 
RTWc_limit_alone = 0 

Commands details: 
total_CMD = 17887 
n_nop = 13664 
Read = 4104 
Write = 0 
L2_Alloc = 0 
L2_WB = 0 
n_act = 181 
n_pre = 165 
n_ref = 0 
n_req = 4104 
total_req = 4104 

Dual Bus Interface Util: 
issued_total_row = 346 
issued_total_col = 4104 
Row_Bus_Util =  0.019344 
CoL_Bus_Util = 0.229440 
Either_Row_CoL_Bus_Util = 0.236093 
Issued_on_Two_Bus_Simul_Util = 0.012691 
issued_two_Eff = 0.053753 
queue_avg = 2.157321 


dram_util_bins: 0 0 0 0 0 0 0 0 0 0
dram_eff_bins: 0 0 0 0 0 0 0 0 0 0
mrqq: max=33 avg=2.15732

========= L2 cache stats =========
L2_cache_bank[0]: Access = 11792, Miss = 5552, Miss_rate = 0.471, Pending_hits = 0, Reservation_fails = 54
L2_cache_bank[1]: Access = 9592, Miss = 3932, Miss_rate = 0.410, Pending_hits = 0, Reservation_fails = 0
L2_cache_bank[2]: Access = 11792, Miss = 5576, Miss_rate = 0.473, Pending_hits = 0, Reservation_fails = 5
L2_cache_bank[3]: Access = 9592, Miss = 3936, Miss_rate = 0.410, Pending_hits = 0, Reservation_fails = 0
L2_cache_bank[4]: Access = 11792, Miss = 5568, Miss_rate = 0.472, Pending_hits = 0, Reservation_fails = 142
L2_cache_bank[5]: Access = 9592, Miss = 3928, Miss_rate = 0.410, Pending_hits = 0, Reservation_fails = 0
L2_cache_bank[6]: Access = 11792, Miss = 5568, Miss_rate = 0.472, Pending_hits = 0, Reservation_fails = 144
L2_cache_bank[7]: Access = 9592, Miss = 3920, Miss_rate = 0.409, Pending_hits = 0, Reservation_fails = 0
L2_cache_bank[8]: Access = 11792, Miss = 5560, Miss_rate = 0.472, Pending_hits = 0, Reservation_fails = 322
L2_cache_bank[9]: Access = 9592, Miss = 3912, Miss_rate = 0.408, Pending_hits = 0, Reservation_fails = 5
L2_cache_bank[10]: Access = 11792, Miss = 5600, Miss_rate = 0.475, Pending_hits = 0, Reservation_fails = 89
L2_cache_bank[11]: Access = 9592, Miss = 3908, Miss_rate = 0.407, Pending_hits = 0, Reservation_fails = 0
L2_cache_bank[12]: Access = 11792, Miss = 5592, Miss_rate = 0.474, Pending_hits = 0, Reservation_fails = 0
L2_cache_bank[13]: Access = 9592, Miss = 3908, Miss_rate = 0.407, Pending_hits = 0, Reservation_fails = 0
L2_cache_bank[14]: Access = 11792, Miss = 5592, Miss_rate = 0.474, Pending_hits = 0, Reservation_fails = 0
L2_cache_bank[15]: Access = 9592, Miss = 3908, Miss_rate = 0.407, Pending_hits = 0, Reservation_fails = 0
L2_cache_bank[16]: Access = 5968, Miss = 2216, Miss_rate = 0.371, Pending_hits = 0, Reservation_fails = 0
L2_cache_bank[17]: Access = 4816, Miss = 1896, Miss_rate = 0.394, Pending_hits = 0, Reservation_fails = 0
L2_cache_bank[18]: Access = 5968, Miss = 2216, Miss_rate = 0.371, Pending_hits = 0, Reservation_fails = 0
L2_cache_bank[19]: Access = 4816, Miss = 1896, Miss_rate = 0.394, Pending_hits = 0, Reservation_fails = 0
L2_cache_bank[20]: Access = 5968, Miss = 2216, Miss_rate = 0.371, Pending_hits = 0, Reservation_fails = 0
L2_cache_bank[21]: Access = 4816, Miss = 1896, Miss_rate = 0.394, Pending_hits = 0, Reservation_fails = 0
L2_cache_bank[22]: Access = 5968, Miss = 2216, Miss_rate = 0.371, Pending_hits = 0, Reservation_fails = 0
L2_cache_bank[23]: Access = 4816, Miss = 1896, Miss_rate = 0.394, Pending_hits = 0, Reservation_fails = 0
L2_cache_bank[24]: Access = 5968, Miss = 2216, Miss_rate = 0.371, Pending_hits = 0, Reservation_fails = 0
L2_cache_bank[25]: Access = 4816, Miss = 1896, Miss_rate = 0.394, Pending_hits = 0, Reservation_fails = 0
L2_cache_bank[26]: Access = 5968, Miss = 2216, Miss_rate = 0.371, Pending_hits = 0, Reservation_fails = 0
L2_cache_bank[27]: Access = 4816, Miss = 1896, Miss_rate = 0.394, Pending_hits = 0, Reservation_fails = 0
L2_cache_bank[28]: Access = 5968, Miss = 2216, Miss_rate = 0.371, Pending_hits = 0, Reservation_fails = 0
L2_cache_bank[29]: Access = 4816, Miss = 1896, Miss_rate = 0.394, Pending_hits = 0, Reservation_fails = 0
L2_cache_bank[30]: Access = 5968, Miss = 2216, Miss_rate = 0.371, Pending_hits = 0, Reservation_fails = 0
L2_cache_bank[31]: Access = 4816, Miss = 1896, Miss_rate = 0.394, Pending_hits = 0, Reservation_fails = 0
L2_cache_bank[32]: Access = 5792, Miss = 2128, Miss_rate = 0.367, Pending_hits = 0, Reservation_fails = 0
L2_cache_bank[33]: Access = 5048, Miss = 1976, Miss_rate = 0.391, Pending_hits = 0, Reservation_fails = 0
L2_cache_bank[34]: Access = 5792, Miss = 2128, Miss_rate = 0.367, Pending_hits = 0, Reservation_fails = 0
L2_cache_bank[35]: Access = 5048, Miss = 1976, Miss_rate = 0.391, Pending_hits = 0, Reservation_fails = 0
L2_cache_bank[36]: Access = 5792, Miss = 2128, Miss_rate = 0.367, Pending_hits = 0, Reservation_fails = 0
L2_cache_bank[37]: Access = 5048, Miss = 1976, Miss_rate = 0.391, Pending_hits = 0, Reservation_fails = 0
L2_cache_bank[38]: Access = 5792, Miss = 2128, Miss_rate = 0.367, Pending_hits = 0, Reservation_fails = 0
L2_cache_bank[39]: Access = 5048, Miss = 1976, Miss_rate = 0.391, Pending_hits = 0, Reservation_fails = 0
L2_cache_bank[40]: Access = 5792, Miss = 2128, Miss_rate = 0.367, Pending_hits = 0, Reservation_fails = 0
L2_cache_bank[41]: Access = 5048, Miss = 1976, Miss_rate = 0.391, Pending_hits = 0, Reservation_fails = 0
L2_cache_bank[42]: Access = 5792, Miss = 2128, Miss_rate = 0.367, Pending_hits = 0, Reservation_fails = 0
L2_cache_bank[43]: Access = 5048, Miss = 1976, Miss_rate = 0.391, Pending_hits = 0, Reservation_fails = 0
L2_cache_bank[44]: Access = 5792, Miss = 2128, Miss_rate = 0.367, Pending_hits = 0, Reservation_fails = 0
L2_cache_bank[45]: Access = 5048, Miss = 1976, Miss_rate = 0.391, Pending_hits = 0, Reservation_fails = 0
L2_cache_bank[46]: Access = 5792, Miss = 2128, Miss_rate = 0.367, Pending_hits = 0, Reservation_fails = 0
L2_cache_bank[47]: Access = 5048, Miss = 1976, Miss_rate = 0.391, Pending_hits = 0, Reservation_fails = 0
L2_total_cache_accesses = 344064
L2_total_cache_misses = 141688
L2_total_cache_miss_rate = 0.4118
L2_total_cache_pending_hits = 0
L2_total_cache_reservation_fails = 761
L2_total_cache_breakdown:
	L2_cache_stats_breakdown[Stream_0][GLOBAL_ACC_R][HIT] = 44352
	L2_cache_stats_breakdown[Stream_0][GLOBAL_ACC_R][HIT_RESERVED] = 0
	L2_cache_stats_breakdown[Stream_0][GLOBAL_ACC_R][MISS] = 25776
	L2_cache_stats_breakdown[Stream_0][GLOBAL_ACC_R][RESERVATION_FAIL] = 519
	L2_cache_stats_breakdown[Stream_0][GLOBAL_ACC_R][SECTOR_MISS] = 77328
	L2_cache_stats_breakdown[Stream_0][GLOBAL_ACC_R][MSHR_HIT] = 0
	L2_cache_stats_breakdown[Stream_0][LOCAL_ACC_R][HIT] = 0
	L2_cache_stats_breakdown[Stream_0][LOCAL_ACC_R][HIT_RESERVED] = 0
	L2_cache_stats_breakdown[Stream_0][LOCAL_ACC_R][MISS] = 0
	L2_cache_stats_breakdown[Stream_0][LOCAL_ACC_R][RESERVATION_FAIL] = 0
	L2_cache_stats_breakdown[Stream_0][LOCAL_ACC_R][SECTOR_MISS] = 0
	L2_cache_stats_breakdown[Stream_0][LOCAL_ACC_R][MSHR_HIT] = 0
	L2_cache_stats_breakdown[Stream_0][CONST_ACC_R][HIT] = 0
	L2_cache_stats_breakdown[Stream_0][CONST_ACC_R][HIT_RESERVED] = 0
	L2_cache_stats_breakdown[Stream_0][CONST_ACC_R][MISS] = 0
	L2_cache_stats_breakdown[Stream_0][CONST_ACC_R][RESERVATION_FAIL] = 0
	L2_cache_stats_breakdown[Stream_0][CONST_ACC_R][SECTOR_MISS] = 0
	L2_cache_stats_breakdown[Stream_0][CONST_ACC_R][MSHR_HIT] = 0
	L2_cache_stats_breakdown[Stream_0][TEXTURE_ACC_R][HIT] = 0
	L2_cache_stats_breakdown[Stream_0][TEXTURE_ACC_R][HIT_RESERVED] = 0
	L2_cache_stats_breakdown[Stream_0][TEXTURE_ACC_R][MISS] = 0
	L2_cache_stats_breakdown[Stream_0][TEXTURE_ACC_R][RESERVATION_FAIL] = 0
	L2_cache_stats_breakdown[Stream_0][TEXTURE_ACC_R][SECTOR_MISS] = 0
	L2_cache_stats_breakdown[Stream_0][TEXTURE_ACC_R][MSHR_HIT] = 0
	L2_cache_stats_breakdown[Stream_0][GLOBAL_ACC_W][HIT] = 98304
	L2_cache_stats_breakdown[Stream_0][GLOBAL_ACC_W][HIT_RESERVED] = 0
	L2_cache_stats_breakdown[Stream_0][GLOBAL_ACC_W][MISS] = 0
	L2_cache_stats_breakdown[Stream_0][GLOBAL_ACC_W][RESERVATION_FAIL] = 0
	L2_cache_stats_breakdown[Stream_0][GLOBAL_ACC_W][SECTOR_MISS] = 0
	L2_cache_stats_breakdown[Stream_0][GLOBAL_ACC_W][MSHR_HIT] = 0
	L2_cache_stats_breakdown[Stream_0][LOCAL_ACC_W][HIT] = 0
	L2_cache_stats_breakdown[Stream_0][LOCAL_ACC_W][HIT_RESERVED] = 0
	L2_cache_stats_breakdown[Stream_0][LOCAL_ACC_W][MISS] = 0
	L2_cache_stats_breakdown[Stream_0][LOCAL_ACC_W][RESERVATION_FAIL] = 0
	L2_cache_stats_breakdown[Stream_0][LOCAL_ACC_W][SECTOR_MISS] = 0
	L2_cache_stats_breakdown[Stream_0][LOCAL_ACC_W][MSHR_HIT] = 0
	L2_cache_stats_breakdown[Stream_0][L1_WRBK_ACC][HIT] = 0
	L2_cache_stats_breakdown[Stream_0][L1_WRBK_ACC][HIT_RESERVED] = 0
	L2_cache_stats_breakdown[Stream_0][L1_WRBK_ACC][MISS] = 0
	L2_cache_stats_breakdown[Stream_0][L1_WRBK_ACC][RESERVATION_FAIL] = 0
	L2_cache_stats_breakdown[Stream_0][L1_WRBK_ACC][SECTOR_MISS] = 0
	L2_cache_stats_breakdown[Stream_0][L1_WRBK_ACC][MSHR_HIT] = 0
	L2_cache_stats_breakdown[Stream_0][L2_WRBK_ACC][HIT] = 0
	L2_cache_stats_breakdown[Stream_0][L2_WRBK_ACC][HIT_RESERVED] = 0
	L2_cache_stats_breakdown[Stream_0][L2_WRBK_ACC][MISS] = 0
	L2_cache_stats_breakdown[Stream_0][L2_WRBK_ACC][RESERVATION_FAIL] = 0
	L2_cache_stats_breakdown[Stream_0][L2_WRBK_ACC][SECTOR_MISS] = 0
	L2_cache_stats_breakdown[Stream_0][L2_WRBK_ACC][MSHR_HIT] = 0
	L2_cache_stats_breakdown[Stream_0][INST_ACC_R][HIT] = 0
	L2_cache_stats_breakdown[Stream_0][INST_ACC_R][HIT_RESERVED] = 0
	L2_cache_stats_breakdown[Stream_0][INST_ACC_R][MISS] = 0
	L2_cache_stats_breakdown[Stream_0][INST_ACC_R][RESERVATION_FAIL] = 0
	L2_cache_stats_breakdown[Stream_0][INST_ACC_R][SECTOR_MISS] = 0
	L2_cache_stats_breakdown[Stream_0][INST_ACC_R][MSHR_HIT] = 0
	L2_cache_stats_breakdown[Stream_0][L1_WR_ALLOC_R][HIT] = 0
	L2_cache_stats_breakdown[Stream_0][L1_WR_ALLOC_R][HIT_RESERVED] = 0
	L2_cache_stats_breakdown[Stream_0][L1_WR_ALLOC_R][MISS] = 0
	L2_cache_stats_breakdown[Stream_0][L1_WR_ALLOC_R][RESERVATION_FAIL] = 0
	L2_cache_stats_breakdown[Stream_0][L1_WR_ALLOC_R][SECTOR_MISS] = 0
	L2_cache_stats_breakdown[Stream_0][L1_WR_ALLOC_R][MSHR_HIT] = 0
	L2_cache_stats_breakdown[Stream_0][L2_WR_ALLOC_R][HIT] = 0
	L2_cache_stats_breakdown[Stream_0][L2_WR_ALLOC_R][HIT_RESERVED] = 0
	L2_cache_stats_breakdown[Stream_0][L2_WR_ALLOC_R][MISS] = 0
	L2_cache_stats_breakdown[Stream_0][L2_WR_ALLOC_R][RESERVATION_FAIL] = 0
	L2_cache_stats_breakdown[Stream_0][L2_WR_ALLOC_R][SECTOR_MISS] = 0
	L2_cache_stats_breakdown[Stream_0][L2_WR_ALLOC_R][MSHR_HIT] = 0
	L2_cache_stats_breakdown[Stream_0][GLOBAL_ACC_R][TOTAL_ACCESS] = 147456
	L2_cache_stats_breakdown[Stream_0][GLOBAL_ACC_W][TOTAL_ACCESS] = 98304
L2_total_cache_reservation_fail_breakdown:
	L2_cache_stats_fail_breakdown[Stream_0][GLOBAL_ACC_R][MISS_QUEUE_FULL] = 5
	L2_cache_stats_fail_breakdown[Stream_0][GLOBAL_ACC_R][MSHR_ENRTY_FAIL] = 514
L2_cache_data_port_util = 0.167
L2_cache_fill_port_util = 0.117

icnt_total_pkts_mem_to_simt=344064
icnt_total_pkts_simt_to_mem=344064
LD_mem_lat_dist  0 0 0 0 0 0 0 0 0 0 0 0 0 0 0 0 0 0 0 0 0 0 0 0 0 0 0
ST_mem_lat_dist  0 0 0 0 0 0 0 0 0 0 0 0 0 0 0 0 0 0 0 0 0 0 0 0 0 0 0
----------------------------Interconnect-DETAILS--------------------------------
Req_Network_injected_packets_num = 344064
Req_Network_cycles = 25252
Req_Network_injected_packets_per_cycle =      13.6252 
Req_Network_conflicts_per_cycle =      15.1009
Req_Network_conflicts_per_cycle_util =      16.6518
Req_Bank_Level_Parallism =      15.0246
Req_Network_in_buffer_full_per_cycle =       5.0738
Req_Network_in_buffer_avg_util =     161.3016
Req_Network_out_buffer_full_per_cycle =       0.2345
Req_Network_out_buffer_avg_util =      31.0119

Reply_Network_injected_packets_num = 344064
Reply_Network_cycles = 25252
Reply_Network_injected_packets_per_cycle =       13.6252
Reply_Network_conflicts_per_cycle =       16.3014
Reply_Network_conflicts_per_cycle_util =      17.8501
Reply_Bank_Level_Parallism =      14.9197
Reply_Network_in_buffer_full_per_cycle =       0.0000
Reply_Network_in_buffer_avg_util =      21.3917
Reply_Network_out_buffer_full_per_cycle =       0.0000
Reply_Network_out_buffer_avg_util =       0.3406
----------------------------END-of-Interconnect-DETAILS-------------------------
GLOBAL_TIMER=25252, gpu_tot_sim_cycle=25252, gpu_sim_cycle=7119
gpgpu_sim::update_stats() last_streamID=0, last_uid=4, start_cycle=18133, end_cycle=25251, sim cycle for this kernel is 7119


gpgpu_simulation_time = 0 days, 0 hrs, 0 min, 48 sec (48 sec)
gpgpu_simulation_rate = 294912 (inst/sec)
gpgpu_simulation_rate = 526 (cycle/sec)
gpgpu_silicon_slowdown = 2281368x
GPGPU-Sim: *** simulation thread exiting ***
GPGPU-Sim: *** exit detected ***
