Accel-Sim [build accelsim-commit-18afabf7e079e44040562e223d938c53c80ada87_modified_0.0]

        *** GPGPU-Sim Simulator Version 4.2.0  [build gpgpu-sim_git-commit-fcdb666c7f418d67664d19072fd200d8be34ae89_modified_2.0] ***


GPGPU-Sim: Configuration options:

-save_embedded_ptx                      0 # saves ptx files embedded in binary as <n>.ptx
-keep                                   0 # keep intermediate files created by GPGPU-Sim when interfacing with external programs
-gpgpu_ptx_save_converted_ptxplus                    0 # Saved converted ptxplus to a file
-gpgpu_occupancy_sm_number                   70 # The SM number to pass to ptxas when getting register usage for computing GPU occupancy. This parameter is required in the config.
-ptx_opcode_latency_int      4,13,4,5,145,32 # Opcode latencies for integers <ADD,MAX,MUL,MAD,DIV,SHFL>Default 1,1,19,25,145,32
-ptx_opcode_latency_fp          4,13,4,5,39 # Opcode latencies for single precision floating points <ADD,MAX,MUL,MAD,DIV>Default 1,1,1,1,30
-ptx_opcode_latency_dp         8,19,8,8,330 # Opcode latencies for double precision floating points <ADD,MAX,MUL,MAD,DIV>Default 8,8,8,8,335
-ptx_opcode_latency_sfu                  100 # Opcode latencies for SFU instructionsDefault 8
-ptx_opcode_latency_tesnor                   64 # Opcode latencies for Tensor instructionsDefault 64
-ptx_opcode_initiation_int          2,2,2,2,8,4 # Opcode initiation intervals for integers <ADD,MAX,MUL,MAD,DIV,SHFL>Default 1,1,4,4,32,4
-ptx_opcode_initiation_fp            2,2,2,2,4 # Opcode initiation intervals for single precision floating points <ADD,MAX,MUL,MAD,DIV>Default 1,1,1,1,5
-ptx_opcode_initiation_dp          4,4,4,4,130 # Opcode initiation intervals for double precision floating points <ADD,MAX,MUL,MAD,DIV>Default 8,8,8,8,130
-ptx_opcode_initiation_sfu                    8 # Opcode initiation intervals for sfu instructionsDefault 8
-ptx_opcode_initiation_tensor                   64 # Opcode initiation intervals for tensor instructionsDefault 64
-cdp_latency         7200,8000,100,12000,1600 # CDP API latency <cudaStreamCreateWithFlags, cudaGetParameterBufferV2_init_perWarp, cudaGetParameterBufferV2_perKernel, cudaLaunchDeviceV2_init_perWarp, cudaLaunchDevicV2_perKernel>Default 7200,8000,100,12000,1600
-network_mode                           2 # Interconnection network mode
-inter_config_file                   mesh # Interconnection network config file
-icnt_in_buffer_limit                  512 # in_buffer_limit
-icnt_out_buffer_limit                  512 # out_buffer_limit
-icnt_subnets                           2 # subnets
-icnt_arbiter_algo                      1 # arbiter_algo
-icnt_verbose                           0 # inct_verbose
-icnt_grant_cycles                      1 # grant_cycles
-gpgpu_ptx_use_cuobjdump                    1 # Use cuobjdump to extract ptx and sass from binaries
-gpgpu_experimental_lib_support                    0 # Try to extract code from cuda libraries [Broken because of unknown cudaGetExportTable]
-checkpoint_option                      0 #  checkpointing flag (0 = no checkpoint)
-checkpoint_kernel                      1 #  checkpointing during execution of which kernel (1- 1st kernel)
-checkpoint_CTA                         0 #  checkpointing after # of CTA (< less than total CTA)
-resume_option                          0 #  resume flag (0 = no resume)
-resume_kernel                          0 #  Resume from which kernel (1= 1st kernel)
-resume_CTA                             0 #  resume from which CTA 
-checkpoint_CTA_t                       0 #  resume from which CTA 
-checkpoint_insn_Y                      0 #  resume from which CTA 
-gpgpu_ptx_convert_to_ptxplus                    0 # Convert SASS (native ISA) to ptxplus and run ptxplus
-gpgpu_ptx_force_max_capability                   70 # Force maximum compute capability
-gpgpu_ptx_inst_debug_to_file                    0 # Dump executed instructions' debug information to file
-gpgpu_ptx_inst_debug_file       inst_debug.txt # Executed instructions' debug output file
-gpgpu_ptx_inst_debug_thread_uid                    1 # Thread UID for executed instructions' debug output
-gpgpu_simd_model                       1 # 1 = post-dominator
-gpgpu_shader_core_pipeline              2048:32 # shader core pipeline config, i.e., {<nthread>:<warpsize>}
-gpgpu_tex_cache:l1  N:4:128:256,L:R:m:N:L,T:512:8,128:2 # per-shader L1 texture cache  (READ-ONLY) config  {<nsets>:<bsize>:<assoc>,<rep>:<wr>:<alloc>:<wr_alloc>,<mshr>:<N>:<merge>,<mq>:<rf>}
-gpgpu_const_cache:l1 N:128:64:8,L:R:f:N:L,S:2:64,4 # per-shader L1 constant memory cache  (READ-ONLY) config  {<nsets>:<bsize>:<assoc>,<rep>:<wr>:<alloc>:<wr_alloc>,<mshr>:<N>:<merge>,<mq>} 
-gpgpu_cache:il1     N:64:128:16,L:R:f:N:L,S:2:48,4 # shader L1 instruction cache config  {<nsets>:<bsize>:<assoc>,<rep>:<wr>:<alloc>:<wr_alloc>,<mshr>:<N>:<merge>,<mq>} 
-gpgpu_cache:dl1     S:4:128:64,L:T:m:L:L,A:512:8,16:0,32 # per-shader L1 data cache config  {<nsets>:<bsize>:<assoc>,<rep>:<wr>:<alloc>:<wr_alloc>,<mshr>:<N>:<merge>,<mq> | none}
-gpgpu_l1_cache_write_ratio                   25 # L1D write ratio
-gpgpu_l1_banks                         4 # The number of L1 cache banks
-gpgpu_l1_banks_byte_interleaving                   32 # l1 banks byte interleaving granularity
-gpgpu_l1_banks_hashing_function                    0 # l1 banks hashing function
-gpgpu_l1_latency                      20 # L1 Hit Latency
-gpgpu_smem_latency                    20 # smem Latency
-gpgpu_cache:dl1PrefL1                 none # per-shader L1 data cache config  {<nsets>:<bsize>:<assoc>,<rep>:<wr>:<alloc>:<wr_alloc>,<mshr>:<N>:<merge>,<mq> | none}
-gpgpu_cache:dl1PrefShared                 none # per-shader L1 data cache config  {<nsets>:<bsize>:<assoc>,<rep>:<wr>:<alloc>:<wr_alloc>,<mshr>:<N>:<merge>,<mq> | none}
-gpgpu_gmem_skip_L1D                    0 # global memory access skip L1D cache (implements -Xptxas -dlcm=cg, default=no skip)
-gpgpu_perfect_mem                      0 # enable perfect memory mode (no cache miss)
-n_regfile_gating_group                    4 # group of lanes that should be read/written together)
-gpgpu_clock_gated_reg_file                    0 # enable clock gated reg file for power calculations
-gpgpu_clock_gated_lanes                    0 # enable clock gated lanes for power calculations
-gpgpu_shader_registers                65536 # Number of registers per shader core. Limits number of concurrent CTAs. (default 8192)
-gpgpu_registers_per_block                65536 # Maximum number of registers per CTA. (default 8192)
-gpgpu_ignore_resources_limitation                    0 # gpgpu_ignore_resources_limitation (default 0)
-gpgpu_shader_cta                      32 # Maximum number of concurrent CTAs in shader (default 32)
-gpgpu_num_cta_barriers                   16 # Maximum number of named barriers per CTA (default 16)
-gpgpu_n_clusters                      40 # number of processing clusters
-gpgpu_n_cores_per_cluster                    2 # number of simd cores per cluster
-gpgpu_n_cluster_ejection_buffer_size                   32 # number of packets in ejection buffer
-gpgpu_n_ldst_response_buffer_size                    2 # number of response packets in ld/st unit ejection buffer
-gpgpu_shmem_per_block                65536 # Size of shared memory per thread block or CTA (default 48kB)
-gpgpu_shmem_size                   98304 # Size of shared memory per shader core (default 16kB)
-gpgpu_shmem_option       0,8,16,32,64,96 # Option list of shared memory sizes
-gpgpu_unified_l1d_size                  128 # Size of unified data cache(L1D + shared memory) in KB
-gpgpu_adaptive_cache_config                    1 # adaptive_cache_config
-gpgpu_shmem_sizeDefault                98304 # Size of shared memory per shader core (default 16kB)
-gpgpu_shmem_size_PrefL1                16384 # Size of shared memory per shader core (default 16kB)
-gpgpu_shmem_size_PrefShared                16384 # Size of shared memory per shader core (default 16kB)
-gpgpu_shmem_num_banks                   32 # Number of banks in the shared memory in each shader core (default 16)
-gpgpu_shmem_limited_broadcast                    0 # Limit shared memory to do one broadcast per cycle (default on)
-gpgpu_shmem_warp_parts                    1 # Number of portions a warp is divided into for shared memory bank conflict check 
-gpgpu_mem_unit_ports                    1 # The number of memory transactions allowed per core cycle
-gpgpu_shmem_warp_parts                    1 # Number of portions a warp is divided into for shared memory bank conflict check 
-gpgpu_warpdistro_shader                   -1 # Specify which shader core to collect the warp size distribution from
-gpgpu_warp_issue_shader                    0 # Specify which shader core to collect the warp issue distribution from
-gpgpu_local_mem_map                    1 # Mapping from local memory space address to simulated GPU physical address space (default = enabled)
-gpgpu_num_reg_banks                    8 # Number of register banks (default = 8)
-gpgpu_reg_bank_use_warp_id                    0 # Use warp ID in mapping registers to banks (default = off)
-gpgpu_sub_core_model                    1 # Sub Core Volta/Pascal model (default = off)
-gpgpu_enable_specialized_operand_collector                    0 # enable_specialized_operand_collector
-gpgpu_operand_collector_num_units_sp                    4 # number of collector units (default = 4)
-gpgpu_operand_collector_num_units_dp                    0 # number of collector units (default = 0)
-gpgpu_operand_collector_num_units_sfu                    4 # number of collector units (default = 4)
-gpgpu_operand_collector_num_units_int                    0 # number of collector units (default = 0)
-gpgpu_operand_collector_num_units_tensor_core                    4 # number of collector units (default = 4)
-gpgpu_operand_collector_num_units_mem                    2 # number of collector units (default = 2)
-gpgpu_operand_collector_num_units_gen                    8 # number of collector units (default = 0)
-gpgpu_operand_collector_num_in_ports_sp                    1 # number of collector unit in ports (default = 1)
-gpgpu_operand_collector_num_in_ports_dp                    0 # number of collector unit in ports (default = 0)
-gpgpu_operand_collector_num_in_ports_sfu                    1 # number of collector unit in ports (default = 1)
-gpgpu_operand_collector_num_in_ports_int                    0 # number of collector unit in ports (default = 0)
-gpgpu_operand_collector_num_in_ports_tensor_core                    1 # number of collector unit in ports (default = 1)
-gpgpu_operand_collector_num_in_ports_mem                    1 # number of collector unit in ports (default = 1)
-gpgpu_operand_collector_num_in_ports_gen                    8 # number of collector unit in ports (default = 0)
-gpgpu_operand_collector_num_out_ports_sp                    1 # number of collector unit in ports (default = 1)
-gpgpu_operand_collector_num_out_ports_dp                    0 # number of collector unit in ports (default = 0)
-gpgpu_operand_collector_num_out_ports_sfu                    1 # number of collector unit in ports (default = 1)
-gpgpu_operand_collector_num_out_ports_int                    0 # number of collector unit in ports (default = 0)
-gpgpu_operand_collector_num_out_ports_tensor_core                    1 # number of collector unit in ports (default = 1)
-gpgpu_operand_collector_num_out_ports_mem                    1 # number of collector unit in ports (default = 1)
-gpgpu_operand_collector_num_out_ports_gen                    8 # number of collector unit in ports (default = 0)
-gpgpu_coalesce_arch                   60 # Coalescing arch (GT200 = 13, Fermi = 20)
-gpgpu_num_sched_per_core                    4 # Number of warp schedulers per core
-gpgpu_max_insn_issue_per_warp                    1 # Max number of instructions that can be issued per warp in one cycle by scheduler (either 1 or 2)
-gpgpu_dual_issue_diff_exec_units                    1 # should dual issue use two different execution unit resources (Default = 1)
-gpgpu_simt_core_sim_order                    1 # Select the simulation order of cores in a cluster (0=Fix, 1=Round-Robin)
-gpgpu_pipeline_widths 4,4,4,4,4,4,4,4,4,4,8,4,4 # Pipeline widths ID_OC_SP,ID_OC_DP,ID_OC_INT,ID_OC_SFU,ID_OC_MEM,OC_EX_SP,OC_EX_DP,OC_EX_INT,OC_EX_SFU,OC_EX_MEM,EX_WB,ID_OC_TENSOR_CORE,OC_EX_TENSOR_CORE
-gpgpu_tensor_core_avail                    1 # Tensor Core Available (default=0)
-gpgpu_num_sp_units                     4 # Number of SP units (default=1)
-gpgpu_num_dp_units                     4 # Number of DP units (default=0)
-gpgpu_num_int_units                    4 # Number of INT units (default=0)
-gpgpu_num_sfu_units                    4 # Number of SF units (default=1)
-gpgpu_num_tensor_core_units                    4 # Number of tensor_core units (default=1)
-gpgpu_num_mem_units                    1 # Number if ldst units (default=1) WARNING: not hooked up to anything
-gpgpu_scheduler                      lrr # Scheduler configuration: < lrr | gto | two_level_active > If two_level_active:<num_active_warps>:<inner_prioritization>:<outer_prioritization>For complete list of prioritization values see shader.h enum scheduler_prioritization_typeDefault: gto
-gpgpu_concurrent_kernel_sm                    1 # Support concurrent kernels on a SM (default = disabled)
-gpgpu_perfect_inst_const_cache                    1 # perfect inst and const cache mode, so all inst and const hits in the cache(default = disabled)
-gpgpu_inst_fetch_throughput                    4 # the number of fetched intruction per warp each cycle
-gpgpu_reg_file_port_throughput                    2 # the number ports of the register file
-specialized_unit_1         1,4,4,4,4,BRA # specialized unit config {<enabled>,<num_units>:<latency>:<initiation>,<ID_OC_SPEC>:<OC_EX_SPEC>,<NAME>}
-specialized_unit_2       1,4,200,4,4,TEX # specialized unit config {<enabled>,<num_units>:<latency>:<initiation>,<ID_OC_SPEC>:<OC_EX_SPEC>,<NAME>}
-specialized_unit_3      1,4,8,4,4,TENSOR # specialized unit config {<enabled>,<num_units>:<latency>:<initiation>,<ID_OC_SPEC>:<OC_EX_SPEC>,<NAME>}
-specialized_unit_4         0,4,4,4,4,BRA # specialized unit config {<enabled>,<num_units>:<latency>:<initiation>,<ID_OC_SPEC>:<OC_EX_SPEC>,<NAME>}
-specialized_unit_5         0,4,4,4,4,BRA # specialized unit config {<enabled>,<num_units>:<latency>:<initiation>,<ID_OC_SPEC>:<OC_EX_SPEC>,<NAME>}
-specialized_unit_6         0,4,4,4,4,BRA # specialized unit config {<enabled>,<num_units>:<latency>:<initiation>,<ID_OC_SPEC>:<OC_EX_SPEC>,<NAME>}
-specialized_unit_7         0,4,4,4,4,BRA # specialized unit config {<enabled>,<num_units>:<latency>:<initiation>,<ID_OC_SPEC>:<OC_EX_SPEC>,<NAME>}
-specialized_unit_8         0,4,4,4,4,BRA # specialized unit config {<enabled>,<num_units>:<latency>:<initiation>,<ID_OC_SPEC>:<OC_EX_SPEC>,<NAME>}
-gpgpu_perf_sim_memcpy                    1 # Fill the L2 cache on memcpy
-gpgpu_simple_dram_model                    0 # simple_dram_model with fixed latency and BW
-gpgpu_dram_scheduler                    1 # 0 = fifo, 1 = FR-FCFS (defaul)
-gpgpu_dram_partition_queues          64:64:64:64 # i2$:$2d:d2$:$2i
-l2_ideal                               0 # Use a ideal L2 cache that always hit
-gpgpu_cache:dl2     S:32:128:24,L:B:m:L:P,A:192:4,32:0,32 # unified banked L2 data cache config  {<nsets>:<bsize>:<assoc>,<rep>:<wr>:<alloc>:<wr_alloc>,<mshr>:<N>:<merge>,<mq>}
-gpgpu_cache:dl2_texture_only                    0 # L2 cache used for texture only
-gpgpu_n_mem                           24 # number of memory modules (e.g. memory controllers) in gpu
-gpgpu_n_sub_partition_per_mchannel                    2 # number of memory subpartition in each memory module
-gpgpu_n_mem_per_ctrlr                    1 # number of memory chips per memory controller
-gpgpu_memlatency_stat                   14 # track and display latency statistics 0x2 enables MC, 0x4 enables queue logs
-gpgpu_frfcfs_dram_sched_queue_size                   64 # 0 = unlimited (default); # entries per chip
-gpgpu_dram_return_queue_size                  192 # 0 = unlimited (default); # entries per chip
-gpgpu_dram_buswidth                   16 # default = 4 bytes (8 bytes per cycle at DDR)
-gpgpu_dram_burst_length                    2 # Burst length of each DRAM request (default = 4 data bus cycle)
-dram_data_command_freq_ratio                    2 # Frequency ratio between DRAM data bus and command bus (default = 2 times, i.e. DDR)
-gpgpu_dram_timing_opt nbk=16:CCD=1:RRD=3:RCD=12:RAS=28:RP=12:RC=40: CL=12:WL=2:CDLR=3:WR=10:nbkgrp=4:CCDL=2:RTPL=3 # DRAM timing parameters = {nbk:tCCD:tRRD:tRCD:tRAS:tRP:tRC:CL:WL:tCDLR:tWR:nbkgrp:tCCDL:tRTPL}
-gpgpu_l2_rop_latency                  160 # ROP queue latency (default 85)
-dram_latency                         100 # DRAM latency (default 30)
-dram_dual_bus_interface                  257 # dual_bus_interface (default = 0) 
-dram_bnk_indexing_policy                    1 # dram_bnk_indexing_policy (0 = normal indexing, 1 = Xoring with the higher bits) (Default = 0)
-dram_bnkgrp_indexing_policy                    1 # dram_bnkgrp_indexing_policy (0 = take higher bits, 1 = take lower bits) (Default = 0)
-dram_seperate_write_queue_enable                    1 # Seperate_Write_Queue_Enable
-dram_write_queue_size           128:108:32 # Write_Queue_Size
-dram_elimnate_rw_turnaround                    0 # elimnate_rw_turnaround i.e set tWTR and tRTW = 0
-icnt_flit_size                        40 # icnt_flit_size
-gpgpu_mem_addr_mapping dramid@8;00000000.00000000.00000000.00000000.0000RRRR.RRRRRRRR.RBBBCCCB.CCCSSSSS # mapping memory address to dram model {dramid@<start bit>;<memory address map>}
-gpgpu_mem_addr_test                    0 # run sweep test to check address mapping for aliased address
-gpgpu_mem_address_mask                    1 # 0 = old addressing mask, 1 = new addressing mask, 2 = new add. mask + flipped bank sel and chip sel bits
-gpgpu_memory_partition_indexing                    2 # 0 = no indexing, 1 = bitwise xoring, 2 = IPoly, 3 = custom indexing
-accelwattch_xml_file accelwattch_sass_sim.xml # AccelWattch XML file
-power_simulation_enabled                    0 # Turn on power simulator (1=On, 0=Off)
-power_per_cycle_dump                    0 # Dump detailed power output each cycle
-hw_perf_file_name            hw_perf.csv # Hardware Performance Statistics file
-hw_perf_bench_name                       # Kernel Name in Hardware Performance Statistics file
-power_simulation_mode                    0 # Switch performance counter input for power simulation (0=Sim, 1=HW, 2=HW-Sim Hybrid)
-dvfs_enabled                           0 # Turn on DVFS for power model
-aggregate_power_stats                    0 # Accumulate power across all kernels
-accelwattch_hybrid_perfsim_L1_RH                    0 # Get L1 Read Hits for Accelwattch-Hybrid from Accel-Sim
-accelwattch_hybrid_perfsim_L1_RM                    0 # Get L1 Read Misses for Accelwattch-Hybrid from Accel-Sim
-accelwattch_hybrid_perfsim_L1_WH                    0 # Get L1 Write Hits for Accelwattch-Hybrid from Accel-Sim
-accelwattch_hybrid_perfsim_L1_WM                    0 # Get L1 Write Misses for Accelwattch-Hybrid from Accel-Sim
-accelwattch_hybrid_perfsim_L2_RH                    0 # Get L2 Read Hits for Accelwattch-Hybrid from Accel-Sim
-accelwattch_hybrid_perfsim_L2_RM                    0 # Get L2 Read Misses for Accelwattch-Hybrid from Accel-Sim
-accelwattch_hybrid_perfsim_L2_WH                    0 # Get L2 Write Hits for Accelwattch-Hybrid from Accel-Sim
-accelwattch_hybrid_perfsim_L2_WM                    0 # Get L2 Write Misses for Accelwattch-Hybrid from Accel-Sim
-accelwattch_hybrid_perfsim_CC_ACC                    0 # Get Constant Cache Acesses for Accelwattch-Hybrid from Accel-Sim
-accelwattch_hybrid_perfsim_SHARED_ACC                    0 # Get Shared Memory Acesses for Accelwattch-Hybrid from Accel-Sim
-accelwattch_hybrid_perfsim_DRAM_RD                    0 # Get DRAM Reads for Accelwattch-Hybrid from Accel-Sim
-accelwattch_hybrid_perfsim_DRAM_WR                    0 # Get DRAM Writes for Accelwattch-Hybrid from Accel-Sim
-accelwattch_hybrid_perfsim_NOC                    0 # Get Interconnect Acesses for Accelwattch-Hybrid from Accel-Sim
-accelwattch_hybrid_perfsim_PIPE_DUTY                    0 # Get Pipeline Duty Cycle Acesses for Accelwattch-Hybrid from Accel-Sim
-accelwattch_hybrid_perfsim_NUM_SM_IDLE                    0 # Get Number of Idle SMs for Accelwattch-Hybrid from Accel-Sim
-accelwattch_hybrid_perfsim_CYCLES                    0 # Get Executed Cycles for Accelwattch-Hybrid from Accel-Sim
-accelwattch_hybrid_perfsim_VOLTAGE                    0 # Get Chip Voltage for Accelwattch-Hybrid from Accel-Sim
-power_trace_enabled                    0 # produce a file for the power trace (1=On, 0=Off)
-power_trace_zlevel                     6 # Compression level of the power trace output log (0=no comp, 9=highest)
-steady_power_levels_enabled                    0 # produce a file for the steady power levels (1=On, 0=Off)
-steady_state_definition                  8:4 # allowed deviation:number of samples
-gpgpu_max_cycle                        0 # terminates gpu simulation early (0 = no limit)
-gpgpu_max_insn                         0 # terminates gpu simulation early (0 = no limit)
-gpgpu_max_cta                          0 # terminates gpu simulation early (0 = no limit)
-gpgpu_max_completed_cta                    0 # terminates gpu simulation early (0 = no limit)
-gpgpu_runtime_stat                   500 # display runtime statistics such as dram utilization {<freq>:<flag>}
-liveness_message_freq                    1 # Minimum number of seconds between simulation liveness messages (0 = always print)
-gpgpu_compute_capability_major                    7 # Major compute capability version number
-gpgpu_compute_capability_minor                    0 # Minor compute capability version number
-gpgpu_flush_l1_cache                    1 # Flush L1 cache at the end of each kernel call
-gpgpu_flush_l2_cache                    0 # Flush L2 cache at the end of each kernel call
-gpgpu_deadlock_detect                    1 # Stop the simulation at deadlock (1=on (default), 0=off)
-gpgpu_ptx_instruction_classification                    0 # if enabled will classify ptx instruction types per kernel (Max 255 kernels now)
-gpgpu_ptx_sim_mode                     0 # Select between Performance (default) or Functional simulation (1)
-gpgpu_clock_domains 1200.0:1200.0:1200.0:850.0 # Clock Domain Frequencies in MhZ {<Core Clock>:<ICNT Clock>:<L2 Clock>:<DRAM Clock>}
-gpgpu_max_concurrent_kernel                  128 # maximum kernels that can run concurrently on GPU, set this value according to max resident grids for your compute capability
-gpgpu_cflog_interval                    0 # Interval between each snapshot in control flow logger
-visualizer_enabled                     0 # Turn on visualizer output (1=On, 0=Off)
-visualizer_outputfile                 NULL # Specifies the output log file for visualizer
-visualizer_zlevel                      6 # Compression level of the visualizer output log (0=no comp, 9=highest)
-gpgpu_stack_size_limit                 1024 # GPU thread stack size
-gpgpu_heap_size_limit              8388608 # GPU malloc heap size 
-gpgpu_runtime_sync_depth_limit                    2 # GPU device runtime synchronize depth
-gpgpu_runtime_pending_launch_count_limit                 2048 # GPU device runtime pending launch count
-trace_enabled                          0 # Turn on traces
-trace_components                    none # comma seperated list of traces to enable. Complete list found in trace_streams.tup. Default none
-trace_sampling_core                    0 # The core which is printed using CORE_DPRINTF. Default 0
-trace_sampling_memory_partition                   -1 # The memory partition which is printed using MEMPART_DPRINTF. Default -1 (i.e. all)
-enable_ptx_file_line_stats                    1 # Turn on PTX source line statistic profiling. (1 = On)
-ptx_line_stats_filename gpgpu_inst_stats.txt # Output file for PTX source line statistics.
-gpgpu_kernel_launch_latency                    0 # Kernel launch latency in cycles. Default: 0
-gpgpu_cdp_enabled                      0 # Turn on CDP
-gpgpu_TB_launch_latency                    0 # thread block launch latency in cycles. Default: 0
-trace               ./util/tracer_nvbit/traces/kernelslist.g # traces kernel filetraces kernel file directory
-trace_opcode_latency_initiation_int                  2,2 # Opcode latencies and initiation for integers in trace driven mode <latency,initiation>
-trace_opcode_latency_initiation_sp                  2,2 # Opcode latencies and initiation for sp in trace driven mode <latency,initiation>
-trace_opcode_latency_initiation_dp                  8,4 # Opcode latencies and initiation for dp in trace driven mode <latency,initiation>
-trace_opcode_latency_initiation_sfu                 20,8 # Opcode latencies and initiation for sfu in trace driven mode <latency,initiation>
-trace_opcode_latency_initiation_tensor                  8,4 # Opcode latencies and initiation for tensor in trace driven mode <latency,initiation>
-trace_opcode_latency_initiation_spec_op_1                  4,4 # specialized unit config <latency,initiation>
-trace_opcode_latency_initiation_spec_op_2                200,4 # specialized unit config <latency,initiation>
-trace_opcode_latency_initiation_spec_op_3                  8,4 # specialized unit config <latency,initiation>
-trace_opcode_latency_initiation_spec_op_4                  4,4 # specialized unit config <latency,initiation>
-trace_opcode_latency_initiation_spec_op_5                  4,4 # specialized unit config <latency,initiation>
-trace_opcode_latency_initiation_spec_op_6                  4,4 # specialized unit config <latency,initiation>
-trace_opcode_latency_initiation_spec_op_7                  4,4 # specialized unit config <latency,initiation>
-trace_opcode_latency_initiation_spec_op_8                  4,4 # specialized unit config <latency,initiation>
DRAM Timing Options:
nbk                                    16 # number of banks
CCD                                     1 # column to column delay
RRD                                     3 # minimal delay between activation of rows in different banks
RCD                                    12 # row to column delay
RAS                                    28 # time needed to activate row
RP                                     12 # time needed to precharge (deactivate) row
RC                                     40 # row cycle time
CDLR                                    3 # switching from write to read (changes tWTR)
WR                                     10 # last data-in to row precharge
CL                                     12 # CAS latency
WL                                      2 # Write latency
nbkgrp                                  4 # number of bank groups
CCDL                                    2 # column to column delay between accesses to different bank groups
RTPL                                    3 # read to precharge delay between accesses to different bank groups
Total number of memory sub partition = 48
addr_dec_mask[CHIP]  = 0000000000000000 	high:64 low:0
addr_dec_mask[BK]    = 0000000000007100 	high:15 low:8
addr_dec_mask[ROW]   = 000000000fff8000 	high:28 low:15
addr_dec_mask[COL]   = 0000000000000eff 	high:12 low:0
addr_dec_mask[BURST] = 000000000000001f 	high:5 low:0
sub_partition_id_mask = 0000000000000100
GPGPU-Sim uArch: clock freqs: 1200000000.000000:1200000000.000000:1200000000.000000:850000000.000000
GPGPU-Sim uArch: clock periods: 0.00000000083333333333:0.00000000083333333333:0.00000000083333333333:0.00000000117647058824
*** Initializing Memory Statistics ***
GPGPU-Sim uArch: performance model initialization complete.
launching memcpy command : MemcpyHtoD,0x00007f6f5f100000,1048576
launching memcpy command : MemcpyHtoD,0x00007f6f5f800000,1048576
launching memcpy command : MemcpyHtoD,0x00007f6f5f900000,1048576
launching memcpy command : MemcpyHtoD,0x00007f6f5fa00000,1048576
Processing kernel ./util/tracer_nvbit/traces/kernel-1.traceg
-kernel name = _Z5saxpyifPfS_
-kernel id = 1
-grid dim = (256,1,1)
-block dim = (1024,1,1)
-shmem = 0
-nregs = 10
-binary version = 70
-cuda stream id = 0
-shmem base_addr = 0x00007f6f95000000
-local mem base_addr = 0x00007f6f93000000
-nvbit version = 1.5.3
-accelsim tracer version = 3
Header info loaded for kernel command : ./util/tracer_nvbit/traces/kernel-1.traceg
Processing kernel ./util/tracer_nvbit/traces/kernel-2.traceg
-kernel name = _Z5scaleifPf
-kernel id = 2
-grid dim = (256,1,1)
-block dim = (1024,1,1)
-shmem = 0
-nregs = 8
-binary version = 70
-cuda stream id = 0
-shmem base_addr = 0x00007f6f95000000
-local mem base_addr = 0x00007f6f93000000
-nvbit version = 1.5.3
-accelsim tracer version = 3
Header info loaded for kernel command : ./util/tracer_nvbit/traces/kernel-2.traceg
Processing kernel ./util/tracer_nvbit/traces/kernel-3.traceg
-kernel name = _Z5saxpyifPfS_
-kernel id = 3
-grid dim = (256,1,1)
-block dim = (1024,1,1)
-shmem = 0
-nregs = 10
-binary version = 70
-cuda stream id = 93864869445264
-shmem base_addr = 0x00007f6f95000000
-local mem base_addr = 0x00007f6f93000000
-nvbit version = 1.5.3
-accelsim tracer version = 3
Header info loaded for kernel command : ./util/tracer_nvbit/traces/kernel-3.traceg
Processing kernel ./util/tracer_nvbit/traces/kernel-4.traceg
-kernel name = _Z3addiPfS_
-kernel id = 4
-grid dim = (256,1,1)
-block dim = (1024,1,1)
-shmem = 0
-nregs = 12
-binary version = 70
-cuda stream id = 0
-shmem base_addr = 0x00007f6f95000000
-local mem base_addr = 0x00007f6f93000000
-nvbit version = 1.5.3
-accelsim tracer version = 3
Header info loaded for kernel command : ./util/tracer_nvbit/traces/kernel-4.traceg
launching kernel name: _Z5saxpyifPfS_ uid: 1 cuda_stream_id: 0
gpgpu_sim::launch: kernelID = 1, streamID = 0
gpgpu_sim::launch start_cycle=0, end_cycle=0
launching kernel name: _Z5saxpyifPfS_ uid: 3 cuda_stream_id: 93864869445264
gpgpu_sim::launch: kernelID = 3, streamID = 93864869445264
gpgpu_sim::launch start_cycle=0, end_cycle=0
GPGPU-Sim uArch: CTA/core = 2, limited by: threads
GPGPU-Sim: Reconfigure L1 cache to 128KB
thread block = 0,0,0
thread block = 1,0,0
thread block = 2,0,0
thread block = 3,0,0
thread block = 4,0,0
thread block = 5,0,0
thread block = 6,0,0
thread block = 7,0,0
thread block = 8,0,0
thread block = 9,0,0
thread block = 10,0,0
thread block = 11,0,0
thread block = 12,0,0
thread block = 13,0,0
thread block = 14,0,0
thread block = 15,0,0
thread block = 16,0,0
thread block = 17,0,0
thread block = 18,0,0
thread block = 19,0,0
thread block = 20,0,0
thread block = 21,0,0
thread block = 22,0,0
thread block = 23,0,0
thread block = 24,0,0
thread block = 25,0,0
thread block = 26,0,0
thread block = 27,0,0
thread block = 28,0,0
thread block = 29,0,0
thread block = 30,0,0
thread block = 31,0,0
thread block = 32,0,0
thread block = 33,0,0
thread block = 34,0,0
thread block = 35,0,0
thread block = 36,0,0
thread block = 37,0,0
thread block = 38,0,0
thread block = 39,0,0
thread block = 40,0,0
thread block = 41,0,0
thread block = 42,0,0
thread block = 43,0,0
thread block = 44,0,0
thread block = 45,0,0
thread block = 46,0,0
thread block = 47,0,0
thread block = 48,0,0
thread block = 49,0,0
thread block = 50,0,0
thread block = 51,0,0
thread block = 52,0,0
thread block = 53,0,0
thread block = 54,0,0
thread block = 55,0,0
thread block = 56,0,0
thread block = 57,0,0
thread block = 58,0,0
thread block = 59,0,0
thread block = 60,0,0
thread block = 61,0,0
thread block = 62,0,0
thread block = 63,0,0
thread block = 64,0,0
thread block = 65,0,0
thread block = 66,0,0
thread block = 67,0,0
thread block = 68,0,0
thread block = 69,0,0
thread block = 70,0,0
thread block = 71,0,0
thread block = 72,0,0
thread block = 73,0,0
thread block = 74,0,0
thread block = 75,0,0
thread block = 76,0,0
thread block = 77,0,0
thread block = 78,0,0
thread block = 79,0,0
thread block = 80,0,0
thread block = 81,0,0
thread block = 82,0,0
thread block = 83,0,0
thread block = 84,0,0
thread block = 85,0,0
thread block = 86,0,0
thread block = 87,0,0
thread block = 88,0,0
thread block = 89,0,0
thread block = 90,0,0
thread block = 91,0,0
thread block = 92,0,0
thread block = 93,0,0
thread block = 94,0,0
thread block = 95,0,0
thread block = 96,0,0
thread block = 97,0,0
thread block = 98,0,0
thread block = 99,0,0
thread block = 100,0,0
thread block = 101,0,0
thread block = 102,0,0
thread block = 103,0,0
thread block = 104,0,0
thread block = 105,0,0
thread block = 106,0,0
thread block = 107,0,0
thread block = 108,0,0
thread block = 109,0,0
thread block = 110,0,0
thread block = 111,0,0
thread block = 112,0,0
thread block = 113,0,0
thread block = 114,0,0
thread block = 115,0,0
thread block = 116,0,0
thread block = 117,0,0
thread block = 118,0,0
thread block = 119,0,0
thread block = 120,0,0
thread block = 121,0,0
thread block = 122,0,0
thread block = 123,0,0
thread block = 124,0,0
thread block = 125,0,0
thread block = 126,0,0
thread block = 127,0,0
thread block = 128,0,0
thread block = 129,0,0
thread block = 130,0,0
thread block = 131,0,0
thread block = 132,0,0
thread block = 133,0,0
thread block = 134,0,0
thread block = 135,0,0
thread block = 136,0,0
thread block = 137,0,0
thread block = 138,0,0
thread block = 139,0,0
thread block = 140,0,0
thread block = 141,0,0
thread block = 142,0,0
thread block = 143,0,0
thread block = 144,0,0
thread block = 145,0,0
thread block = 146,0,0
thread block = 147,0,0
thread block = 148,0,0
thread block = 149,0,0
thread block = 150,0,0
thread block = 151,0,0
thread block = 152,0,0
thread block = 153,0,0
thread block = 154,0,0
thread block = 155,0,0
thread block = 156,0,0
thread block = 157,0,0
thread block = 158,0,0
thread block = 159,0,0
thread block = 160,0,0
thread block = 161,0,0
thread block = 162,0,0
thread block = 163,0,0
thread block = 164,0,0
thread block = 165,0,0
thread block = 166,0,0
thread block = 167,0,0
thread block = 168,0,0
thread block = 169,0,0
thread block = 170,0,0
thread block = 171,0,0
thread block = 172,0,0
thread block = 173,0,0
thread block = 174,0,0
thread block = 175,0,0
thread block = 176,0,0
thread block = 177,0,0
thread block = 178,0,0
thread block = 179,0,0
thread block = 180,0,0
thread block = 181,0,0
thread block = 182,0,0
thread block = 183,0,0
thread block = 184,0,0
thread block = 185,0,0
thread block = 186,0,0
thread block = 187,0,0
thread block = 188,0,0
thread block = 189,0,0
thread block = 190,0,0
thread block = 191,0,0
thread block = 192,0,0
thread block = 193,0,0
thread block = 194,0,0
thread block = 195,0,0
thread block = 196,0,0
thread block = 197,0,0
thread block = 198,0,0
thread block = 199,0,0
thread block = 200,0,0
thread block = 201,0,0
thread block = 202,0,0
thread block = 203,0,0
thread block = 204,0,0
thread block = 205,0,0
thread block = 206,0,0
thread block = 207,0,0
thread block = 208,0,0
thread block = 209,0,0
thread block = 210,0,0
thread block = 211,0,0
thread block = 212,0,0
thread block = 213,0,0
thread block = 214,0,0
thread block = 215,0,0
thread block = 216,0,0
thread block = 217,0,0
thread block = 218,0,0
thread block = 219,0,0
thread block = 220,0,0
thread block = 221,0,0
thread block = 222,0,0
thread block = 223,0,0
thread block = 224,0,0
thread block = 225,0,0
thread block = 226,0,0
thread block = 227,0,0
thread block = 228,0,0
thread block = 229,0,0
thread block = 230,0,0
thread block = 231,0,0
thread block = 232,0,0
thread block = 233,0,0
thread block = 234,0,0
thread block = 235,0,0
thread block = 236,0,0
thread block = 237,0,0
thread block = 238,0,0
thread block = 239,0,0
thread block = 240,0,0
thread block = 241,0,0
thread block = 242,0,0
thread block = 243,0,0
thread block = 244,0,0
thread block = 245,0,0
thread block = 246,0,0
thread block = 247,0,0
thread block = 248,0,0
thread block = 249,0,0
thread block = 250,0,0
thread block = 251,0,0
thread block = 252,0,0
thread block = 253,0,0
thread block = 254,0,0
thread block = 255,0,0
GPGPU-Sim uArch: CTA/core = 2, limited by: threads
GPGPU-Sim: Reconfigure L1 cache to 128KB
thread block = 0,0,0
thread block = 1,0,0
thread block = 2,0,0
thread block = 3,0,0
thread block = 4,0,0
thread block = 5,0,0
thread block = 6,0,0
thread block = 7,0,0
thread block = 8,0,0
thread block = 9,0,0
thread block = 10,0,0
thread block = 11,0,0
thread block = 12,0,0
thread block = 13,0,0
thread block = 14,0,0
thread block = 15,0,0
thread block = 16,0,0
thread block = 17,0,0
thread block = 18,0,0
thread block = 19,0,0
thread block = 20,0,0
thread block = 21,0,0
thread block = 22,0,0
thread block = 23,0,0
thread block = 24,0,0
thread block = 25,0,0
thread block = 26,0,0
thread block = 27,0,0
thread block = 28,0,0
thread block = 29,0,0
thread block = 30,0,0
thread block = 31,0,0
thread block = 32,0,0
thread block = 33,0,0
thread block = 34,0,0
thread block = 35,0,0
thread block = 36,0,0
thread block = 37,0,0
thread block = 38,0,0
thread block = 39,0,0
thread block = 40,0,0
thread block = 41,0,0
thread block = 42,0,0
thread block = 43,0,0
thread block = 44,0,0
thread block = 45,0,0
thread block = 46,0,0
thread block = 47,0,0
thread block = 48,0,0
thread block = 49,0,0
thread block = 50,0,0
thread block = 51,0,0
thread block = 52,0,0
thread block = 53,0,0
thread block = 54,0,0
thread block = 55,0,0
thread block = 56,0,0
thread block = 57,0,0
thread block = 58,0,0
thread block = 59,0,0
thread block = 60,0,0
thread block = 61,0,0
thread block = 62,0,0
thread block = 63,0,0
thread block = 64,0,0
thread block = 65,0,0
thread block = 66,0,0
thread block = 67,0,0
thread block = 68,0,0
thread block = 69,0,0
thread block = 70,0,0
thread block = 71,0,0
thread block = 72,0,0
thread block = 73,0,0
thread block = 74,0,0
thread block = 75,0,0
thread block = 76,0,0
thread block = 77,0,0
thread block = 78,0,0
thread block = 79,0,0
thread block = 80,0,0
thread block = 81,0,0
thread block = 82,0,0
thread block = 83,0,0
thread block = 84,0,0
thread block = 85,0,0
thread block = 86,0,0
thread block = 87,0,0
thread block = 88,0,0
thread block = 89,0,0
thread block = 90,0,0
thread block = 91,0,0
thread block = 92,0,0
thread block = 93,0,0
thread block = 94,0,0
thread block = 95,0,0
thread block = 96,0,0
thread block = 97,0,0
thread block = 98,0,0
thread block = 99,0,0
thread block = 100,0,0
thread block = 101,0,0
thread block = 102,0,0
thread block = 103,0,0
thread block = 104,0,0
thread block = 105,0,0
thread block = 106,0,0
thread block = 107,0,0
thread block = 108,0,0
thread block = 109,0,0
thread block = 110,0,0
thread block = 111,0,0
thread block = 112,0,0
thread block = 113,0,0
thread block = 114,0,0
thread block = 115,0,0
thread block = 116,0,0
thread block = 117,0,0
thread block = 118,0,0
thread block = 119,0,0
thread block = 120,0,0
thread block = 121,0,0
thread block = 122,0,0
thread block = 123,0,0
thread block = 124,0,0
thread block = 125,0,0
thread block = 126,0,0
thread block = 127,0,0
thread block = 128,0,0
thread block = 129,0,0
thread block = 130,0,0
thread block = 131,0,0
thread block = 132,0,0
thread block = 133,0,0
thread block = 134,0,0
thread block = 135,0,0
thread block = 136,0,0
thread block = 137,0,0
thread block = 138,0,0
thread block = 139,0,0
thread block = 140,0,0
thread block = 141,0,0
thread block = 142,0,0
thread block = 143,0,0
thread block = 144,0,0
thread block = 145,0,0
thread block = 146,0,0
thread block = 147,0,0
thread block = 148,0,0
thread block = 149,0,0
thread block = 150,0,0
thread block = 151,0,0
thread block = 152,0,0
thread block = 153,0,0
thread block = 154,0,0
thread block = 155,0,0
thread block = 156,0,0
thread block = 157,0,0
thread block = 158,0,0
thread block = 159,0,0
thread block = 160,0,0
thread block = 161,0,0
thread block = 162,0,0
thread block = 163,0,0
thread block = 164,0,0
thread block = 165,0,0
thread block = 166,0,0
thread block = 167,0,0
thread block = 168,0,0
thread block = 169,0,0
thread block = 170,0,0
thread block = 171,0,0
thread block = 172,0,0
thread block = 173,0,0
thread block = 174,0,0
thread block = 175,0,0
thread block = 176,0,0
thread block = 177,0,0
thread block = 178,0,0
thread block = 179,0,0
thread block = 180,0,0
thread block = 181,0,0
thread block = 182,0,0
thread block = 183,0,0
thread block = 184,0,0
thread block = 185,0,0
thread block = 186,0,0
thread block = 187,0,0
thread block = 188,0,0
thread block = 189,0,0
thread block = 190,0,0
thread block = 191,0,0
thread block = 192,0,0
thread block = 193,0,0
thread block = 194,0,0
thread block = 195,0,0
thread block = 196,0,0
thread block = 197,0,0
thread block = 198,0,0
thread block = 199,0,0
thread block = 200,0,0
thread block = 201,0,0
thread block = 202,0,0
thread block = 203,0,0
thread block = 204,0,0
thread block = 205,0,0
thread block = 206,0,0
thread block = 207,0,0
thread block = 208,0,0
thread block = 209,0,0
thread block = 210,0,0
thread block = 211,0,0
thread block = 212,0,0
thread block = 213,0,0
thread block = 214,0,0
thread block = 215,0,0
thread block = 216,0,0
thread block = 217,0,0
thread block = 218,0,0
thread block = 219,0,0
thread block = 220,0,0
thread block = 221,0,0
thread block = 222,0,0
thread block = 223,0,0
thread block = 224,0,0
thread block = 225,0,0
thread block = 226,0,0
thread block = 227,0,0
thread block = 228,0,0
gpgpu_sim::set_kernel_done start_cycle=0, end_cycle=9575
thread block = 229,0,0
Destroy streams for kernel 1: size 0
kernel_name = _Z5saxpyifPfS_ _Z5saxpyifPfS_ 
kernel_launch_uid = 1 3 
gpu_sim_cycle = 9576
gpu_sim_insn = 5995776
gpu_ipc =     626.1253
gpu_tot_sim_cycle = 9576
gpu_tot_sim_insn = 5995776
gpu_tot_ipc =     626.1253
gpu_tot_issued_cta = 486
gpu_occupancy = 80.6279% 
gpu_tot_occupancy = 80.6279% 
max_total_param_size = 0
gpu_stall_dramfull = 34593
gpu_stall_icnt2sh    = 496
partiton_level_parallism =      16.8197
partiton_level_parallism_total  =      16.8197
partiton_level_parallism_util =      17.3599
partiton_level_parallism_util_total  =      17.3599
L2_BW  =     628.5434 GB/Sec
L2_BW_total  =     628.5434 GB/Sec
gpu_total_sim_rate=272535

========= Core cache stats =========
L1I_cache:
	L1I_total_cache_accesses = 0
	L1I_total_cache_misses = 0
	L1I_total_cache_pending_hits = 0
	L1I_total_cache_reservation_fails = 0
L1D_cache:
	L1D_cache_core[0]: Access = 4171, Miss = 2907, Miss_rate = 0.697, Pending_hits = 0, Reservation_fails = 8011
	L1D_cache_core[1]: Access = 3328, Miss = 2304, Miss_rate = 0.692, Pending_hits = 0, Reservation_fails = 12102
	L1D_cache_core[2]: Access = 5120, Miss = 3584, Miss_rate = 0.700, Pending_hits = 0, Reservation_fails = 6725
	L1D_cache_core[3]: Access = 3804, Miss = 2645, Miss_rate = 0.695, Pending_hits = 0, Reservation_fails = 11848
	L1D_cache_core[4]: Access = 4436, Miss = 3072, Miss_rate = 0.693, Pending_hits = 0, Reservation_fails = 7716
	L1D_cache_core[5]: Access = 5124, Miss = 3456, Miss_rate = 0.674, Pending_hits = 0, Reservation_fails = 7921
	L1D_cache_core[6]: Access = 5232, Miss = 3584, Miss_rate = 0.685, Pending_hits = 0, Reservation_fails = 7151
	L1D_cache_core[7]: Access = 4388, Miss = 2944, Miss_rate = 0.671, Pending_hits = 0, Reservation_fails = 8146
	L1D_cache_core[8]: Access = 5164, Miss = 3584, Miss_rate = 0.694, Pending_hits = 0, Reservation_fails = 7132
	L1D_cache_core[9]: Access = 4200, Miss = 2828, Miss_rate = 0.673, Pending_hits = 0, Reservation_fails = 6332
	L1D_cache_core[10]: Access = 4580, Miss = 3072, Miss_rate = 0.671, Pending_hits = 0, Reservation_fails = 6273
	L1D_cache_core[11]: Access = 4709, Miss = 3173, Miss_rate = 0.674, Pending_hits = 0, Reservation_fails = 6012
	L1D_cache_core[12]: Access = 4166, Miss = 2922, Miss_rate = 0.701, Pending_hits = 0, Reservation_fails = 6589
	L1D_cache_core[13]: Access = 4480, Miss = 3072, Miss_rate = 0.686, Pending_hits = 0, Reservation_fails = 5859
	L1D_cache_core[14]: Access = 4591, Miss = 3235, Miss_rate = 0.705, Pending_hits = 0, Reservation_fails = 8640
	L1D_cache_core[15]: Access = 3935, Miss = 2655, Miss_rate = 0.675, Pending_hits = 0, Reservation_fails = 5950
	L1D_cache_core[16]: Access = 4332, Miss = 3072, Miss_rate = 0.709, Pending_hits = 0, Reservation_fails = 7537
	L1D_cache_core[17]: Access = 3803, Miss = 2779, Miss_rate = 0.731, Pending_hits = 0, Reservation_fails = 12131
	L1D_cache_core[18]: Access = 4520, Miss = 3072, Miss_rate = 0.680, Pending_hits = 0, Reservation_fails = 7813
	L1D_cache_core[19]: Access = 4096, Miss = 2816, Miss_rate = 0.688, Pending_hits = 0, Reservation_fails = 7849
	L1D_cache_core[20]: Access = 3976, Miss = 2816, Miss_rate = 0.708, Pending_hits = 0, Reservation_fails = 10151
	L1D_cache_core[21]: Access = 4390, Miss = 3002, Miss_rate = 0.684, Pending_hits = 0, Reservation_fails = 7481
	L1D_cache_core[22]: Access = 4428, Miss = 3044, Miss_rate = 0.687, Pending_hits = 0, Reservation_fails = 9908
	L1D_cache_core[23]: Access = 4236, Miss = 2944, Miss_rate = 0.695, Pending_hits = 0, Reservation_fails = 10303
	L1D_cache_core[24]: Access = 5116, Miss = 3584, Miss_rate = 0.701, Pending_hits = 0, Reservation_fails = 9382
	L1D_cache_core[25]: Access = 4284, Miss = 3072, Miss_rate = 0.717, Pending_hits = 0, Reservation_fails = 8932
	L1D_cache_core[26]: Access = 3288, Miss = 2264, Miss_rate = 0.689, Pending_hits = 0, Reservation_fails = 10086
	L1D_cache_core[27]: Access = 4633, Miss = 3257, Miss_rate = 0.703, Pending_hits = 0, Reservation_fails = 9835
	L1D_cache_core[28]: Access = 3620, Miss = 2560, Miss_rate = 0.707, Pending_hits = 0, Reservation_fails = 11447
	L1D_cache_core[29]: Access = 4068, Miss = 2954, Miss_rate = 0.726, Pending_hits = 0, Reservation_fails = 13631
	L1D_cache_core[30]: Access = 3584, Miss = 2560, Miss_rate = 0.714, Pending_hits = 0, Reservation_fails = 10146
	L1D_cache_core[31]: Access = 3976, Miss = 2816, Miss_rate = 0.708, Pending_hits = 0, Reservation_fails = 9275
	L1D_cache_core[32]: Access = 4016, Miss = 2948, Miss_rate = 0.734, Pending_hits = 0, Reservation_fails = 12677
	L1D_cache_core[33]: Access = 3867, Miss = 2631, Miss_rate = 0.680, Pending_hits = 0, Reservation_fails = 9935
	L1D_cache_core[34]: Access = 4400, Miss = 3072, Miss_rate = 0.698, Pending_hits = 0, Reservation_fails = 8640
	L1D_cache_core[35]: Access = 3465, Miss = 2441, Miss_rate = 0.704, Pending_hits = 0, Reservation_fails = 12540
	L1D_cache_core[36]: Access = 3904, Miss = 2784, Miss_rate = 0.713, Pending_hits = 0, Reservation_fails = 10978
	L1D_cache_core[37]: Access = 4372, Miss = 3072, Miss_rate = 0.703, Pending_hits = 0, Reservation_fails = 9303
	L1D_cache_core[38]: Access = 4672, Miss = 3200, Miss_rate = 0.685, Pending_hits = 0, Reservation_fails = 7270
	L1D_cache_core[39]: Access = 4196, Miss = 3072, Miss_rate = 0.732, Pending_hits = 0, Reservation_fails = 10091
	L1D_total_cache_accesses = 170670
	L1D_total_cache_misses = 118869
	L1D_total_cache_miss_rate = 0.6965
	L1D_total_cache_pending_hits = 0
	L1D_total_cache_reservation_fails = 359748
	L1D_cache_data_port_util = 0.068
	L1D_cache_fill_port_util = 0.137
L1C_cache:
	L1C_total_cache_accesses = 0
	L1C_total_cache_misses = 0
	L1C_total_cache_pending_hits = 0
	L1C_total_cache_reservation_fails = 0
L1T_cache:
	L1T_total_cache_accesses = 0
	L1T_total_cache_misses = 0
	L1T_total_cache_pending_hits = 0
	L1T_total_cache_reservation_fails = 0

Total_core_cache_stats:
	Total_core_cache_stats_breakdown[Stream_0][GLOBAL_ACC_R][HIT] = 0
	Total_core_cache_stats_breakdown[Stream_0][GLOBAL_ACC_R][HIT_RESERVED] = 0
	Total_core_cache_stats_breakdown[Stream_0][GLOBAL_ACC_R][MISS] = 16384
	Total_core_cache_stats_breakdown[Stream_0][GLOBAL_ACC_R][RESERVATION_FAIL] = 223539
	Total_core_cache_stats_breakdown[Stream_0][GLOBAL_ACC_R][SECTOR_MISS] = 49152
	Total_core_cache_stats_breakdown[Stream_0][GLOBAL_ACC_R][MSHR_HIT] = 0
	Total_core_cache_stats_breakdown[Stream_0][LOCAL_ACC_R][HIT] = 0
	Total_core_cache_stats_breakdown[Stream_0][LOCAL_ACC_R][HIT_RESERVED] = 0
	Total_core_cache_stats_breakdown[Stream_0][LOCAL_ACC_R][MISS] = 0
	Total_core_cache_stats_breakdown[Stream_0][LOCAL_ACC_R][RESERVATION_FAIL] = 0
	Total_core_cache_stats_breakdown[Stream_0][LOCAL_ACC_R][SECTOR_MISS] = 0
	Total_core_cache_stats_breakdown[Stream_0][LOCAL_ACC_R][MSHR_HIT] = 0
	Total_core_cache_stats_breakdown[Stream_0][CONST_ACC_R][HIT] = 0
	Total_core_cache_stats_breakdown[Stream_0][CONST_ACC_R][HIT_RESERVED] = 0
	Total_core_cache_stats_breakdown[Stream_0][CONST_ACC_R][MISS] = 0
	Total_core_cache_stats_breakdown[Stream_0][CONST_ACC_R][RESERVATION_FAIL] = 0
	Total_core_cache_stats_breakdown[Stream_0][CONST_ACC_R][SECTOR_MISS] = 0
	Total_core_cache_stats_breakdown[Stream_0][CONST_ACC_R][MSHR_HIT] = 0
	Total_core_cache_stats_breakdown[Stream_0][TEXTURE_ACC_R][HIT] = 0
	Total_core_cache_stats_breakdown[Stream_0][TEXTURE_ACC_R][HIT_RESERVED] = 0
	Total_core_cache_stats_breakdown[Stream_0][TEXTURE_ACC_R][MISS] = 0
	Total_core_cache_stats_breakdown[Stream_0][TEXTURE_ACC_R][RESERVATION_FAIL] = 0
	Total_core_cache_stats_breakdown[Stream_0][TEXTURE_ACC_R][SECTOR_MISS] = 0
	Total_core_cache_stats_breakdown[Stream_0][TEXTURE_ACC_R][MSHR_HIT] = 0
	Total_core_cache_stats_breakdown[Stream_0][GLOBAL_ACC_W][HIT] = 32768
	Total_core_cache_stats_breakdown[Stream_0][GLOBAL_ACC_W][HIT_RESERVED] = 0
	Total_core_cache_stats_breakdown[Stream_0][GLOBAL_ACC_W][MISS] = 0
	Total_core_cache_stats_breakdown[Stream_0][GLOBAL_ACC_W][RESERVATION_FAIL] = 15860
	Total_core_cache_stats_breakdown[Stream_0][GLOBAL_ACC_W][SECTOR_MISS] = 0
	Total_core_cache_stats_breakdown[Stream_0][GLOBAL_ACC_W][MSHR_HIT] = 0
	Total_core_cache_stats_breakdown[Stream_0][LOCAL_ACC_W][HIT] = 0
	Total_core_cache_stats_breakdown[Stream_0][LOCAL_ACC_W][HIT_RESERVED] = 0
	Total_core_cache_stats_breakdown[Stream_0][LOCAL_ACC_W][MISS] = 0
	Total_core_cache_stats_breakdown[Stream_0][LOCAL_ACC_W][RESERVATION_FAIL] = 0
	Total_core_cache_stats_breakdown[Stream_0][LOCAL_ACC_W][SECTOR_MISS] = 0
	Total_core_cache_stats_breakdown[Stream_0][LOCAL_ACC_W][MSHR_HIT] = 0
	Total_core_cache_stats_breakdown[Stream_0][L1_WRBK_ACC][HIT] = 0
	Total_core_cache_stats_breakdown[Stream_0][L1_WRBK_ACC][HIT_RESERVED] = 0
	Total_core_cache_stats_breakdown[Stream_0][L1_WRBK_ACC][MISS] = 0
	Total_core_cache_stats_breakdown[Stream_0][L1_WRBK_ACC][RESERVATION_FAIL] = 0
	Total_core_cache_stats_breakdown[Stream_0][L1_WRBK_ACC][SECTOR_MISS] = 0
	Total_core_cache_stats_breakdown[Stream_0][L1_WRBK_ACC][MSHR_HIT] = 0
	Total_core_cache_stats_breakdown[Stream_0][L2_WRBK_ACC][HIT] = 0
	Total_core_cache_stats_breakdown[Stream_0][L2_WRBK_ACC][HIT_RESERVED] = 0
	Total_core_cache_stats_breakdown[Stream_0][L2_WRBK_ACC][MISS] = 0
	Total_core_cache_stats_breakdown[Stream_0][L2_WRBK_ACC][RESERVATION_FAIL] = 0
	Total_core_cache_stats_breakdown[Stream_0][L2_WRBK_ACC][SECTOR_MISS] = 0
	Total_core_cache_stats_breakdown[Stream_0][L2_WRBK_ACC][MSHR_HIT] = 0
	Total_core_cache_stats_breakdown[Stream_0][INST_ACC_R][HIT] = 0
	Total_core_cache_stats_breakdown[Stream_0][INST_ACC_R][HIT_RESERVED] = 0
	Total_core_cache_stats_breakdown[Stream_0][INST_ACC_R][MISS] = 0
	Total_core_cache_stats_breakdown[Stream_0][INST_ACC_R][RESERVATION_FAIL] = 0
	Total_core_cache_stats_breakdown[Stream_0][INST_ACC_R][SECTOR_MISS] = 0
	Total_core_cache_stats_breakdown[Stream_0][INST_ACC_R][MSHR_HIT] = 0
	Total_core_cache_stats_breakdown[Stream_0][L1_WR_ALLOC_R][HIT] = 0
	Total_core_cache_stats_breakdown[Stream_0][L1_WR_ALLOC_R][HIT_RESERVED] = 0
	Total_core_cache_stats_breakdown[Stream_0][L1_WR_ALLOC_R][MISS] = 0
	Total_core_cache_stats_breakdown[Stream_0][L1_WR_ALLOC_R][RESERVATION_FAIL] = 0
	Total_core_cache_stats_breakdown[Stream_0][L1_WR_ALLOC_R][SECTOR_MISS] = 0
	Total_core_cache_stats_breakdown[Stream_0][L1_WR_ALLOC_R][MSHR_HIT] = 0
	Total_core_cache_stats_breakdown[Stream_0][L2_WR_ALLOC_R][HIT] = 0
	Total_core_cache_stats_breakdown[Stream_0][L2_WR_ALLOC_R][HIT_RESERVED] = 0
	Total_core_cache_stats_breakdown[Stream_0][L2_WR_ALLOC_R][MISS] = 0
	Total_core_cache_stats_breakdown[Stream_0][L2_WR_ALLOC_R][RESERVATION_FAIL] = 0
	Total_core_cache_stats_breakdown[Stream_0][L2_WR_ALLOC_R][SECTOR_MISS] = 0
	Total_core_cache_stats_breakdown[Stream_0][L2_WR_ALLOC_R][MSHR_HIT] = 0
	Total_core_cache_stats_breakdown[Stream_0][GLOBAL_ACC_R][TOTAL_ACCESS] = 65536
	Total_core_cache_stats_breakdown[Stream_0][GLOBAL_ACC_W][TOTAL_ACCESS] = 32768

Total_core_cache_fail_stats:
	Total_core_cache_fail_stats_breakdown[Stream_0][GLOBAL_ACC_R][MISS_QUEUE_FULL] = 223539
	Total_core_cache_fail_stats_breakdown[Stream_0][GLOBAL_ACC_W][MISS_QUEUE_FULL] = 15860
ctas_completed 326, Shader 0 warp_id issue ditsribution:
warp_id:
0, 1, 2, 3, 4, 5, 6, 7, 8, 9, 10, 11, 12, 13, 14, 15, 16, 17, 18, 19, 20, 21, 22, 23, 24, 25, 26, 27, 28, 29, 30, 31, 32, 33, 34, 35, 36, 37, 38, 39, 40, 41, 42, 43, 44, 45, 46, 47, 48, 49, 50, 51, 52, 53, 54, 55, 56, 57, 58, 59, 60, 61, 62, 63, 
distro:
42, 42, 42, 42, 42, 42, 42, 42, 42, 42, 42, 42, 42, 42, 42, 42, 42, 42, 42, 42, 42, 42, 42, 42, 42, 42, 42, 42, 42, 42, 42, 42, 42, 42, 42, 42, 42, 42, 42, 42, 42, 41, 41, 42, 42, 42, 42, 42, 42, 42, 42, 42, 41, 42, 42, 40, 40, 40, 40, 40, 40, 40, 40, 40, 
gpgpu_n_tot_thrd_icount = 6981792
gpgpu_n_tot_w_icount = 218181
gpgpu_n_stall_shd_mem = 133734
gpgpu_n_mem_read_local = 0
gpgpu_n_mem_write_local = 0
gpgpu_n_mem_read_global = 118579
gpgpu_n_mem_write_global = 51031
gpgpu_n_mem_texture = 0
gpgpu_n_mem_const = 0
gpgpu_n_load_insn  = 964384
gpgpu_n_store_insn = 409760
gpgpu_n_shmem_insn = 0
gpgpu_n_sstarr_insn = 0
gpgpu_n_tex_insn = 0
gpgpu_n_const_mem_insn = 0
gpgpu_n_param_mem_insn = 0
gpgpu_n_shmem_bkconflict = 0
gpgpu_n_cache_bkconflict = 0
gpgpu_n_intrawarp_mshr_merge = 0
gpgpu_n_cmem_portconflict = 0
gpgpu_stall_shd_mem[c_mem][resource_stall] = 0
gpgpu_stall_shd_mem[s_mem][bk_conf] = 0
gpgpu_stall_shd_mem[gl_mem][resource_stall] = 133734
gpgpu_stall_shd_mem[gl_mem][coal_stall] = 0
gpgpu_stall_shd_mem[gl_mem][data_port_stall] = 0
gpu_reg_bank_conflict_stalls = 0
Warp Occupancy Distribution:
Stall:562105	W0_Idle:285435	W0_Scoreboard:2024636	W1:0	W2:0	W3:0	W4:0	W5:0	W6:0	W7:0	W8:0	W9:0	W10:0	W11:0	W12:0	W13:0	W14:0	W15:0	W16:0	W17:0	W18:0	W19:0	W20:0	W21:0	W22:0	W23:0	W24:0	W25:0	W26:0	W27:0	W28:0	W29:0	W30:0	W31:0	W32:191664
single_issue_nums: WS0:55625	WS1:55620	WS2:55619	WS3:55622	
dual_issue_nums: WS0:0	WS1:0	WS2:0	WS3:0	
traffic_breakdown_coretomem[GLOBAL_ACC_R] = 948632 {8:118579,}
traffic_breakdown_coretomem[GLOBAL_ACC_W] = 2041240 {40:51031,}
traffic_breakdown_memtocore[GLOBAL_ACC_R] = 4206920 {40:105173,}
traffic_breakdown_memtocore[GLOBAL_ACC_W] = 376176 {8:47022,}
maxmflatency = 4009 
max_icnt2mem_latency = 3061 
maxmrqlatency = 765 
max_icnt2sh_latency = 937 
averagemflatency = 1139 
avg_icnt2mem_latency = 710 
avg_mrq_latency = 32 
avg_icnt2sh_latency = 130 
mrq_lat_table:17390 	16151 	7791 	8830 	10249 	12904 	11460 	3870 	739 	21 	0 	0 	0 	0 	0 	0 	0 	0 	0 	0 	0 	0 	0 	0 	0 	0 	0 	0 	0 	0 	0 	0 	
dq_lat_table:0 	0 	0 	0 	0 	0 	0 	0 	0 	0 	0 	0 	0 	0 	0 	0 	0 	0 	0 	0 	0 	0 	0 	0 	0 	0 	0 	0 	0 	0 	0 	0 	
mf_lat_table:0 	0 	0 	0 	0 	0 	0 	4717 	22205 	50587 	58165 	16504 	0 	0 	0 	0 	0 	0 	0 	0 	0 	0 	0 	0 	0 	0 	0 	0 	0 	0 	0 	0 	
icnt2mem_lat_table:0 	0 	0 	0 	6820 	8208 	13925 	21153 	29313 	43518 	32969 	5159 	0 	0 	0 	0 	0 	0 	0 	0 	0 	0 	0 	0 	
icnt2sh_lat_table:0 	30135 	10268 	8127 	10162 	14765 	19442 	33205 	20873 	5201 	0 	0 	0 	0 	0 	0 	0 	0 	0 	0 	0 	0 	0 	0 	
mf_lat_pw_table:0 	0 	0 	0 	0 	0 	0 	0 	1 	5 	12 	0 	0 	0 	0 	0 	0 	0 	0 	0 	0 	0 	0 	0 	0 	0 	0 	0 	0 	0 	0 	0 	
maximum concurrent accesses to same row:
dram[0]:        96        92        96        96        64        71        86        82        78        82        84        78        67        39        94        95 
dram[1]:        96        67        96        96        64        43        88        86        70        77        87        92        56        42        95        96 
dram[2]:        82        85        96        96        59        66        87        84        65        79        88        95        44        37        94        96 
dram[3]:        70        70        96        96        58        43        88        86        77        76        87        84        63        35        89        90 
dram[4]:        96        75        96        96        78        37        88        88        78        78        80        82        43        49        96        96 
dram[5]:        96        74        96        96        68        42        80        88        74        78        86        82        69        53        96        93 
dram[6]:        96        83        96        96        62        48        83        88        72        76        83        92        54        51        92        96 
dram[7]:        96        71        96        96        58        48        84        87        75        85        86        92        43        51        95        96 
dram[8]:        32        32        64        64        64        64        24        38        64        64        64        64        45        43        43        41 
dram[9]:        32        32        64        64        64        64        24        40        63        60        64        64        61        25        38        21 
dram[10]:        32        32        64        64        64        64        30        46        63        60        64        64        59        30        37        24 
dram[11]:        32        32        64        64        64        64        24        36        64        64        64        64        52        35        39        34 
dram[12]:        32        32        64        64        64        64        30        42        64        60        64        64        32        33        54        32 
dram[13]:        32        32        64        64        64        64        29        30        64        64        64        64        32        31        52        25 
dram[14]:        32        32        64        64        64        64        26        30        64        64        64        64        31        28        51        20 
dram[15]:        32        32        64        64        64        64        32        32        64        60        63        64        49        34        51        22 
dram[16]:        64        56        32        32        27        32        54        55        64        41        43        35        42        64        17        21 
dram[17]:        64        43        32        32        32        32        53        58        64        64        40        33        42        39        19        31 
dram[18]:        62        48        32        32        32        32        54        64        64        64        49        32        51        64        40        26 
dram[19]:        64        56        32        32        27        32        55        60        64        48        45        32        54        36        18        21 
dram[20]:        64        62        32        32        32        30        49        62        64        64        32        32        52        64        20        14 
dram[21]:        64        44        32        32        32        30        52        58        64        30        32        32        48        64        30        24 
dram[22]:        64        63        32        32        32        30        52        58        64        37        44        32        54        64        18        29 
dram[23]:        64        58        32        32        32        32        50        60        64        64        32        44        50        64        19        26 
maximum service time to same row:
dram[0]:      3871      3796      4771      4671      2319      2280      1142      1221      1584      2170      1515      1444      1674      1921      2087      2297 
dram[1]:      3986      3595      4788      4638      1349      2565      1149      1257      2230      2090      1449      1584      1675      1574      2093      2295 
dram[2]:      3843      3471      4754      4718      1201      2852      1516      1238      2101      1869      1909      1856      1702      1366      2157      2264 
dram[3]:      3734      3557      4725      4684      1474      1760      1352      1309      1800      2160      1496      1653      1696      1668      2233      2193 
dram[4]:      4126      3483      4675      4688      1367      2615      1183      1253      2177      2261      1536      1538      1637      1539      2224      2208 
dram[5]:      4126      3536      4663      4597      2359      1317      1349      1351      1920      1844      1228      1601      1633      1968      2210      2342 
dram[6]:      3953      4032      4636      4684      1220      2736      1321      1612      1891      1611      1604      1557      1567      1632      2167      2206 
dram[7]:      4019      3991      4616      4620      2238      2889      1408      1432      1891      2324      1588      1556      1485      1815      2169      2156 
dram[8]:      3991      3789      5822      5904      4395      4304      2268      2875      2866      3408      3370      2678      3432      4019      2879      3696 
dram[9]:      3988      3787      5815      5861      4378      4293      3371      3102      2883      2884      3314      4139      3562      3462      3055      3619 
dram[10]:      3989      3797      5768      6070      4406      4303      3221      2942      2898      2797      3389      4124      3569      3183      3122      3835 
dram[11]:      4044      3870      5734      6021      4413      4362      2375      3068      2968      3551      3223      2538      3541      3997      3007      3694 
dram[12]:      4102      3883      5659      5917      4272      4339      3350      3360      2739      2737      3120      4066      3320      3289      2928      3369 
dram[13]:      4111      3874      5637      5909      4354      4368      2765      2896      2682      3501      3350      2400      3351      3607      3107      3466 
dram[14]:      4071      3869      5687      5866      4372      4356      2324      2834      2740      3459      3276      2474      3405      3387      3011      3428 
dram[15]:      4053      3874      5644      5866      4255      4288      3342      3224      2990      2772      3384      4137      3575      3574      3020      3737 
dram[16]:      4118      3902      4720      4770      2474      3234      2729      3669      3629      2564      3409      3457      3289      3757      3718      4157 
dram[17]:      4227      3844      4722      4703      3673      4216      2893      3300      3624      3896      2405      3003      2886      3190      4014      3802 
dram[18]:      4111      3889      4646      4789      3590      4211      2948      3469      3677      3790      2349      2888      3083      3924      3910      3766 
dram[19]:      4125      4023      4674      4729      2995      3113      2845      3703      3893      3159      3052      3137      3006      3129      3797      4181 
dram[20]:      4014      4135      4719      4796      3795      4270      2901      3196      3503      3809      2439      2722      2879      3919      3721      3982 
dram[21]:      3999      3925      4798      4791      3440      4268      3095      3683      3633      2947      2711      3461      3028      3909      3878      4309 
dram[22]:      4032      4107      4712      4848      2255      4242      3149      3708      3638      3189      2754      2983      2825      3906      3819      4036 
dram[23]:      4008      4155      4711      4800      3991      4350      2818      3359      3771      3794      2415      2743      2876      3916      3853      3970 
average row accesses per activate:
dram[0]: 39.250000 18.937500 37.500000 51.000000  9.191489 14.620689  9.086206 10.765958  8.487804 13.280000  8.784314 11.487180 18.000000 12.521739 10.714286 12.869565 
dram[1]: 38.625000 19.125000 55.500000 52.500000  8.640000 11.368421  9.189655 11.326087 12.137931  9.371428  8.615385 10.418605 13.714286 16.000000 13.636364 13.043478 
dram[2]: 22.357143 24.833334 37.333332 53.500000  8.307693 13.625000 10.173077 13.256411 10.545455  9.647058 12.108109 11.487180 15.157895 13.090909 13.454545 16.210526 
dram[3]: 15.650000 18.625000 37.833332 68.000000  9.600000 13.500000 11.229167 11.478261 11.354838 10.375000  8.960000 10.181818 20.571428 12.000000 11.538462 12.666667 
dram[4]: 21.428572 13.772727 59.000000 55.000000 12.000000 11.100000  8.333333 11.456522 12.740741 12.000000  9.531915 11.789474 14.400000 24.000000 11.680000 18.750000 
dram[5]: 21.571428 21.142857 56.750000 54.000000 11.675675 12.111111 11.102041 11.488889 11.466666  9.828571  7.466667 11.487180 16.000000 19.200001 12.333333 19.466667 
dram[6]: 16.611111 21.071428 40.000000 55.500000  7.389831 11.578947  9.571428 10.666667  9.405405  8.717949  8.072727 10.666667 16.000000 19.200001 12.500000 17.411764 
dram[7]: 21.642857 13.681818 39.666668 55.500000  8.720000 12.111111 10.431373 12.116279 11.000000 10.117647  8.784314 11.789474 14.400000 19.200001 13.636364 17.411764 
dram[8]: 23.500000 37.250000 46.000000 47.000000 14.000000 16.000000  5.891892  9.000000 18.400000 44.000000 13.714286 17.454546 18.285715 25.600000 17.777779 14.545455 
dram[9]: 35.250000 18.875000 46.000000 47.000000 12.444445 12.444445  7.962963 10.333333 15.333333 35.200001 12.000000 24.000000 18.285715 11.636364 17.777779 13.333333 
dram[10]: 36.500000 25.333334 46.000000 47.000000 11.000000 14.000000 10.285714 10.285714 30.666666 35.200001 12.800000 24.000000 18.285715 12.800000 17.777779 13.333333 
dram[11]: 17.875000 37.250000 45.333332 48.000000 12.444445 12.444445  6.937500  9.818182 23.000000 44.000000 12.000000 27.428572 25.600000 25.600000 17.777779  9.411765 
dram[12]: 36.250000 36.000000 45.333332 45.000000 14.000000 10.666667 10.045455 11.368421 46.000000 35.200001 12.800000 19.200001  9.846154  9.846154 20.000000 11.428572 
dram[13]: 14.500000 36.000000 45.333332 45.000000 18.666666 12.444445  8.148149  8.307693 46.000000 44.000000 12.800000 13.714286  9.846154 11.636364 26.666666 13.333333 
dram[14]: 18.500000 36.000000 45.666668 45.333332 14.000000 16.000000  7.785714  9.000000 46.000000 44.000000 19.200001 16.000000 14.222222  8.533334 16.000000 11.428572 
dram[15]: 35.500000 14.400000 45.333332 45.000000 10.181818 16.000000 11.473684 11.368421 46.000000 25.142857 11.294118 24.000000 18.285715 14.222222 16.000000 11.428572 
dram[16]: 31.833334 25.000000 26.000000 29.666666  8.761905 12.571428  9.370370 19.076923 38.000000 18.000000 24.000000 13.714286 13.333333 10.062500  9.846154 10.666667 
dram[17]: 19.200001 16.666666 28.666666 27.333334 12.266666 12.571428 10.120000 12.400000 38.000000 36.000000 12.000000 13.714286 11.428572 13.333333  9.142858 12.800000 
dram[18]: 24.000000 16.666666 27.333334 28.000000 11.500000  9.263158 10.160000 22.545454 38.000000 36.000000 16.000000 12.000000 13.333333 14.727273 11.636364  9.142858 
dram[19]: 24.000000 25.000000 25.666666 29.666666  7.666667 11.000000  9.481482 19.076923 38.000000 24.000000 19.200001 10.666667 16.000000 12.307693  9.846154 10.666667 
dram[20]: 48.000000 25.000000 26.000000 30.666666 15.333333 17.600000 10.240000 16.799999 25.333334 36.000000 16.000000 11.294118 20.000000 11.066667  9.142858  7.111111 
dram[21]: 24.000000 16.666666 25.333334 32.000000 23.000000 12.571428 12.190476 19.076923 25.333334 18.000000 19.200001 12.000000 26.666666  9.705882 10.666667 10.666667 
dram[22]: 19.200001 33.333332 27.333334 30.666666 10.222222 13.538462 12.190476 19.153847 38.000000 14.400000 24.000000 12.000000 20.000000 16.299999 10.666667  8.000000 
dram[23]: 48.000000 25.000000 28.000000 30.666666 36.799999 12.571428  9.481482 14.823529 38.000000 36.000000 13.714286 17.454546 16.000000 10.866667 10.666667  7.111111 
average row locality = 89405/6484 = 13.788556
number of total memory accesses made:
dram[0]:         0         0         0         0         0         0         0         0         0         0         0         0         0         0         0         0 
dram[1]:         0         0         0         0         0         0         0         0         0         0         0         0         0         0         0         0 
dram[2]:         0         0         0         0         0         0         0         0         0         0         0         0         0         0         0         0 
dram[3]:         0         0         0         0         0         0         0         0         0         0         0         0         0         0         0         0 
dram[4]:         0         0         0         0         0         0         0         0         0         0         0         0         0         0         0         0 
dram[5]:         0         0         0         0         0         0         0         0         0         0         0         0         0         0         0         0 
dram[6]:         0         0         0         0         0         0         0         0         0         0         0         0         0         0         0         0 
dram[7]:         0         0         0         0         0         0         0         0         0         0         0         0         0         0         0         0 
dram[8]:         0         0         0         0         0         0         0         0         0         0         0         0         0         0         0         0 
dram[9]:         0         0         0         0         0         0         0         0         0         0         0         0         0         0         0         0 
dram[10]:         0         0         0         0         0         0         0         0         0         0         0         0         0         0         0         0 
dram[11]:         0         0         0         0         0         0         0         0         0         0         0         0         0         0         0         0 
dram[12]:         0         0         0         0         0         0         0         0         0         0         0         0         0         0         0         0 
dram[13]:         0         0         0         0         0         0         0         0         0         0         0         0         0         0         0         0 
dram[14]:         0         0         0         0         0         0         0         0         0         0         0         0         0         0         0         0 
dram[15]:         0         0         0         0         0         0         0         0         0         0         0         0         0         0         0         0 
dram[16]:         0         0         0         0         0         0         0         0         0         0         0         0         0         0         0         0 
dram[17]:         0         0         0         0         0         0         0         0         0         0         0         0         0         0         0         0 
dram[18]:         0         0         0         0         0         0         0         0         0         0         0         0         0         0         0         0 
dram[19]:         0         0         0         0         0         0         0         0         0         0         0         0         0         0         0         0 
dram[20]:         0         0         0         0         0         0         0         0         0         0         0         0         0         0         0         0 
dram[21]:         0         0         0         0         0         0         0         0         0         0         0         0         0         0         0         0 
dram[22]:         0         0         0         0         0         0         0         0         0         0         0         0         0         0         0         0 
dram[23]:         0         0         0         0         0         0         0         0         0         0         0         0         0         0         0         0 
total accesses: 0
min_bank_accesses = 0!
min_chip_accesses = 0!
number of total read accesses:
dram[0]:       316       296       288       288       344       336       416       436       404       416       416       435       362       335       306       304 
dram[1]:       312       304       288       288       350       342       424       432       400       424       417       437       357       338       309       303 
dram[2]:       312       300       288       288       352       340       428       436       400       420       415       430       361       330       316       306 
dram[3]:       312       300       288       288       340       344       428       444       404       424       421       436       362       330       315       300 
dram[4]:       316       304       288       288       350       344       428       436       408       416       418       440       349       335       316       304 
dram[5]:       312       304       288       288       340       340       424       448       416       416       424       434       350       328       303       305 
dram[6]:       316       300       288       288       344       348       416       448       412       420       416       434       347       328       318       319 
dram[7]:       316       304       288       288       340       348       424       444       416       424       416       437       352       334       314       315 
dram[8]:       160       160       128       128       128       128       224       224       224       224       178       168       141       149       203       205 
dram[9]:       160       160       128       128       128       128       224       224       224       224       175       169       141       151       202       205 
dram[10]:       160       160       128       128       128       128       224       224       220       224       176       168       146       152       202       206 
dram[11]:       160       160       128       128       128       128       224       224       224       224       182       168       143       149       200       208 
dram[12]:       160       160       128       128       128       128       224       224       224       224       181       168       145       144       200       200 
dram[13]:       160       160       128       128       128       128       224       224       224       224       180       168       145       144       200       199 
dram[14]:       160       160       128       128       128       128       224       224       224       224       178       168       148       144       201       200 
dram[15]:       160       160       128       128       128       128       224       224       224       224       178       168       142       144       200       200 
dram[16]:       131       128       160       160       176       184       160       160       160       160       221       208       215       224       110       121 
dram[17]:       128       128       160       160       176       184       160       160       160       160       221       208       216       224       118       114 
dram[18]:       131       128       160       160       176       184       160       160       160       160       222       208       216       224       114       116 
dram[19]:       128       128       160       160       176       184       160       160       160       160       224       208       216       224       109       121 
dram[20]:       134       128       160       160       176       184       160       160       160       160       224       212       216       224       111       124 
dram[21]:       134       128       160       160       176       184       160       160       160       160       224       208       216       224       108       128 
dram[22]:       131       128       160       160       176       184       160       160       160       160       224       210       216       224       114       124 
dram[23]:       131       128       160       160       176       184       160       160       160       160       224       212       216       224       116       124 
total dram reads = 89476
bank skew: 448/108 = 4.15
chip skew: 5760/2677 = 2.15
number of total write accesses:
dram[0]:        64        64        16         8        12         0         0         0         0         0         8         8        48        36        64        64 
dram[1]:        64        64         8         8         8         4         0         0         0         0         8        12        36        56        64        64 
dram[2]:        64        64         4        12         0        16         0         0         0         0         4        12        32        64        64        64 
dram[3]:        64        64         8         4         8         4         0         0         0         0         8        12        48        40        64        64 
dram[4]:        64        64         4        16         8         4         0         0         0         0         8        12        40        44        64        64 
dram[5]:        64        64        16         8         4         0         0         0         0         0         8        20        44        44        64        64 
dram[6]:        64        64        16        12         4         4         0         0         0         0         8        16        48        48        64        64 
dram[7]:        64        64         4        28         8         8         0         0         0         0         8         8        44        44        64        64 
dram[8]:         0         0         0         0         0         0         0         0         0         0         0         0         0         0         0         0 
dram[9]:         0         0         0         0         0         0         0         0         0         0         0         0         0         0         0         0 
dram[10]:         0         0         0         0         0         0         0         0         0         0         0         0         0         0         0         0 
dram[11]:         0         0         0         0         0         0         0         0         0         0         0         0         0         0         0         0 
dram[12]:         0         0         0         0         0         0         0         0         0         0         0         0         0         0         0         0 
dram[13]:         0         0         0         0         0         0         0         0         0         0         0         0         0         0         0         0 
dram[14]:         0         0         0         0         0         0         0         0         0         0         0         0         0         0         0         0 
dram[15]:         0         0         0         0         0         0         0         0         0         0         0         0         0         0         0         0 
dram[16]:         0         0         0         0         0         0         0         0         0         0         0         0         0         0         0         0 
dram[17]:         0         0         0         0         0         0         0         0         0         0         0         0         0         0         0         0 
dram[18]:         0         0         0         0         0         0         0         0         0         0         0         0         0         0         0         0 
dram[19]:         0         0         0         0         0         0         0         0         0         0         0         0         0         0         0         0 
[...]
Bank_Level_Parallism_Ready = 1.597222
write_to_read_ratio_blp_rw_average = 0.000000
GrpLevelPara = 1.765519 

BW Util details:
bwutil = 0.260224 
total_CMD = 15771 
util_bw = 4104 
Wasted_Col = 1216 
Wasted_Row = 344 
Idle = 10107 

BW Util Bottlenecks: 
RCDc_limit = 1020 
RCDWRc_limit = 0 
WTRc_limit = 0 
RTWc_limit = 0 
CCDLc_limit = 813 
rwq = 0 
CCDLc_limit_alone = 813 
WTRc_limit_alone = 0 
RTWc_limit_alone = 0 

Commands details: 
total_CMD = 15771 
n_nop = 11482 
Read = 4104 
Write = 0 
L2_Alloc = 0 
L2_WB = 0 
n_act = 216 
n_pre = 200 
n_ref = 0 
n_req = 4104 
total_req = 4104 

Dual Bus Interface Util: 
issued_total_row = 416 
issued_total_col = 4104 
Row_Bus_Util =  0.026378 
CoL_Bus_Util = 0.260224 
Either_Row_CoL_Bus_Util = 0.271955 
Issued_on_Two_Bus_Simul_Util = 0.014647 
issued_two_Eff = 0.053859 
queue_avg = 2.056813 


dram_util_bins: 0 0 0 0 0 0 0 0 0 0
dram_eff_bins: 0 0 0 0 0 0 0 0 0 0
mrqq: max=33 avg=2.05681
Memory Partition 20: 
Cache L2_bank_040:
MSHR contents

Cache L2_bank_041:
MSHR contents

In Dram Latency Queue (total = 0): 
DRAM[20]: 16 bks, busW=16 BL=2 CL=12, tRRD=3 tCCD=1, tRCD=12 tRAS=28 tRP=12 tRC=40
n_cmd=15771 n_nop=11481 n_act=201 n_pre=185 n_ref_event=0 n_req=4104 n_rd=4104 n_rd_L2_A=0 n_write=0 n_wr_bk=0 bw_util=0.2602
n_activity=8730 dram_eff=0.4701
bk0: 232a 15387i bk1: 232a 15364i bk2: 192a 15411i bk3: 192a 15449i bk4: 272a 15101i bk5: 256a 15170i bk6: 352a 14507i bk7: 352a 14802i bk8: 248a 15309i bk9: 240a 15412i bk10: 288a 15016i bk11: 288a 14807i bk12: 256a 15123i bk13: 256a 15077i bk14: 224a 14971i bk15: 224a 14816i 

------------------------------------------------------------------------

Row_Buffer_Locality = 0.951023
Row_Buffer_Locality_read = 0.951023
Row_Buffer_Locality_write = -nan
Bank_Level_Parallism = 2.542847
Bank_Level_Parallism_Col = 2.157685
Bank_Level_Parallism_Ready = 1.628655
write_to_read_ratio_blp_rw_average = 0.000000
GrpLevelPara = 1.772106 

BW Util details:
bwutil = 0.260224 
total_CMD = 15771 
util_bw = 4104 
Wasted_Col = 1209 
Wasted_Row = 475 
Idle = 9983 

BW Util Bottlenecks: 
RCDc_limit = 1015 
RCDWRc_limit = 0 
WTRc_limit = 0 
RTWc_limit = 0 
CCDLc_limit = 789 
rwq = 0 
CCDLc_limit_alone = 789 
WTRc_limit_alone = 0 
RTWc_limit_alone = 0 

Commands details: 
total_CMD = 15771 
n_nop = 11481 
Read = 4104 
Write = 0 
L2_Alloc = 0 
L2_WB = 0 
n_act = 201 
n_pre = 185 
n_ref = 0 
n_req = 4104 
total_req = 4104 

Dual Bus Interface Util: 
issued_total_row = 386 
issued_total_col = 4104 
Row_Bus_Util =  0.024475 
CoL_Bus_Util = 0.260224 
Either_Row_CoL_Bus_Util = 0.272018 
Issued_on_Two_Bus_Simul_Util = 0.012682 
issued_two_Eff = 0.046620 
queue_avg = 2.083761 


dram_util_bins: 0 0 0 0 0 0 0 0 0 0
dram_eff_bins: 0 0 0 0 0 0 0 0 0 0
mrqq: max=30 avg=2.08376
Memory Partition 21: 
Cache L2_bank_042:
MSHR contents

Cache L2_bank_043:
MSHR contents

In Dram Latency Queue (total = 0): 
DRAM[21]: 16 bks, busW=16 BL=2 CL=12, tRRD=3 tCCD=1, tRCD=12 tRAS=28 tRP=12 tRC=40
n_cmd=15771 n_nop=11512 n_act=196 n_pre=180 n_ref_event=0 n_req=4104 n_rd=4104 n_rd_L2_A=0 n_write=0 n_wr_bk=0 bw_util=0.2602
n_activity=8861 dram_eff=0.4632
bk0: 232a 15165i bk1: 232a 15193i bk2: 192a 15410i bk3: 192a 15444i bk4: 272a 15224i bk5: 256a 15054i bk6: 352a 14692i bk7: 352a 15062i bk8: 248a 15407i bk9: 240a 15306i bk10: 288a 15174i bk11: 288a 14862i bk12: 256a 15260i bk13: 256a 15007i bk14: 224a 15147i bk15: 224a 15082i 

------------------------------------------------------------------------

Row_Buffer_Locality = 0.952242
Row_Buffer_Locality_read = 0.952242
Row_Buffer_Locality_write = -nan
Bank_Level_Parallism = 2.462666
Bank_Level_Parallism_Col = 2.073138
Bank_Level_Parallism_Ready = 1.556043
write_to_read_ratio_blp_rw_average = 0.000000
GrpLevelPara = 1.745740 

BW Util details:
bwutil = 0.260224 
total_CMD = 15771 
util_bw = 4104 
Wasted_Col = 1154 
Wasted_Row = 407 
Idle = 10106 

BW Util Bottlenecks: 
RCDc_limit = 909 
RCDWRc_limit = 0 
WTRc_limit = 0 
RTWc_limit = 0 
CCDLc_limit = 788 
rwq = 0 
CCDLc_limit_alone = 788 
WTRc_limit_alone = 0 
RTWc_limit_alone = 0 

Commands details: 
total_CMD = 15771 
n_nop = 11512 
Read = 4104 
Write = 0 
L2_Alloc = 0 
L2_WB = 0 
n_act = 196 
n_pre = 180 
n_ref = 0 
n_req = 4104 
total_req = 4104 

Dual Bus Interface Util: 
issued_total_row = 376 
issued_total_col = 4104 
Row_Bus_Util =  0.023841 
CoL_Bus_Util = 0.260224 
Either_Row_CoL_Bus_Util = 0.270053 
Issued_on_Two_Bus_Simul_Util = 0.014013 
issued_two_Eff = 0.051890 
queue_avg = 2.012935 


dram_util_bins: 0 0 0 0 0 0 0 0 0 0
dram_eff_bins: 0 0 0 0 0 0 0 0 0 0
mrqq: max=26 avg=2.01294
Memory Partition 22: 
Cache L2_bank_044:
MSHR contents

Cache L2_bank_045:
MSHR contents

In Dram Latency Queue (total = 0): 
DRAM[22]: 16 bks, busW=16 BL=2 CL=12, tRRD=3 tCCD=1, tRCD=12 tRAS=28 tRP=12 tRC=40
n_cmd=15771 n_nop=11500 n_act=198 n_pre=182 n_ref_event=0 n_req=4104 n_rd=4104 n_rd_L2_A=0 n_write=0 n_wr_bk=0 bw_util=0.2602
n_activity=8707 dram_eff=0.4713
bk0: 232a 15183i bk1: 232a 15395i bk2: 192a 15445i bk3: 192a 15488i bk4: 272a 14859i bk5: 256a 15063i bk6: 352a 14720i bk7: 352a 14949i bk8: 248a 15440i bk9: 240a 15229i bk10: 288a 15161i bk11: 288a 14892i bk12: 256a 15251i bk13: 256a 15296i bk14: 224a 15089i bk15: 224a 14817i 

------------------------------------------------------------------------

Row_Buffer_Locality = 0.951754
Row_Buffer_Locality_read = 0.951754
Row_Buffer_Locality_write = -nan
Bank_Level_Parallism = 2.483430
Bank_Level_Parallism_Col = 2.074060
Bank_Level_Parallism_Ready = 1.564815
write_to_read_ratio_blp_rw_average = 0.000000
GrpLevelPara = 1.748998 

BW Util details:
bwutil = 0.260224 
total_CMD = 15771 
util_bw = 4104 
Wasted_Col = 1170 
Wasted_Row = 429 
Idle = 10068 

BW Util Bottlenecks: 
RCDc_limit = 915 
RCDWRc_limit = 0 
WTRc_limit = 0 
RTWc_limit = 0 
CCDLc_limit = 773 
rwq = 0 
CCDLc_limit_alone = 773 
WTRc_limit_alone = 0 
RTWc_limit_alone = 0 

Commands details: 
total_CMD = 15771 
n_nop = 11500 
Read = 4104 
Write = 0 
L2_Alloc = 0 
L2_WB = 0 
n_act = 198 
n_pre = 182 
n_ref = 0 
n_req = 4104 
total_req = 4104 

Dual Bus Interface Util: 
issued_total_row = 380 
issued_total_col = 4104 
Row_Bus_Util =  0.024095 
CoL_Bus_Util = 0.260224 
Either_Row_CoL_Bus_Util = 0.270814 
Issued_on_Two_Bus_Simul_Util = 0.013506 
issued_two_Eff = 0.049871 
queue_avg = 2.058525 


dram_util_bins: 0 0 0 0 0 0 0 0 0 0
dram_eff_bins: 0 0 0 0 0 0 0 0 0 0
mrqq: max=30 avg=2.05853
Memory Partition 23: 
Cache L2_bank_046:
MSHR contents

Cache L2_bank_047:
MSHR contents

In Dram Latency Queue (total = 0): 
DRAM[23]: 16 bks, busW=16 BL=2 CL=12, tRRD=3 tCCD=1, tRCD=12 tRAS=28 tRP=12 tRC=40
n_cmd=15771 n_nop=11529 n_act=196 n_pre=180 n_ref_event=0 n_req=4104 n_rd=4104 n_rd_L2_A=0 n_write=0 n_wr_bk=0 bw_util=0.2602
n_activity=8745 dram_eff=0.4693
bk0: 232a 15433i bk1: 232a 15323i bk2: 192a 15513i bk3: 192a 15518i bk4: 272a 15383i bk5: 256a 15063i bk6: 352a 14527i bk7: 352a 14918i bk8: 248a 15448i bk9: 240a 15423i bk10: 288a 14980i bk11: 288a 15121i bk12: 256a 15145i bk13: 256a 15098i bk14: 224a 15136i bk15: 224a 14868i 

------------------------------------------------------------------------

Row_Buffer_Locality = 0.952242
Row_Buffer_Locality_read = 0.952242
Row_Buffer_Locality_write = -nan
Bank_Level_Parallism = 2.368485
Bank_Level_Parallism_Col = 1.948976
Bank_Level_Parallism_Ready = 1.477583
write_to_read_ratio_blp_rw_average = 0.000000
GrpLevelPara = 1.686836 

BW Util details:
bwutil = 0.260224 
total_CMD = 15771 
util_bw = 4104 
Wasted_Col = 1208 
Wasted_Row = 406 
Idle = 10053 

BW Util Bottlenecks: 
RCDc_limit = 948 
RCDWRc_limit = 0 
WTRc_limit = 0 
RTWc_limit = 0 
CCDLc_limit = 737 
rwq = 0 
CCDLc_limit_alone = 737 
WTRc_limit_alone = 0 
RTWc_limit_alone = 0 

Commands details: 
total_CMD = 15771 
n_nop = 11529 
Read = 4104 
Write = 0 
L2_Alloc = 0 
L2_WB = 0 
n_act = 196 
n_pre = 180 
n_ref = 0 
n_req = 4104 
total_req = 4104 

Dual Bus Interface Util: 
issued_total_row = 376 
issued_total_col = 4104 
Row_Bus_Util =  0.023841 
CoL_Bus_Util = 0.260224 
Either_Row_CoL_Bus_Util = 0.268975 
Issued_on_Two_Bus_Simul_Util = 0.015091 
issued_two_Eff = 0.056106 
queue_avg = 2.116099 


dram_util_bins: 0 0 0 0 0 0 0 0 0 0
dram_eff_bins: 0 0 0 0 0 0 0 0 0 0
mrqq: max=33 avg=2.1161

========= L2 cache stats =========
L2_cache_bank[0]: Access = 11744, Miss = 5640, Miss_rate = 0.480, Pending_hits = 0, Reservation_fails = 0
L2_cache_bank[1]: Access = 9576, Miss = 4124, Miss_rate = 0.431, Pending_hits = 0, Reservation_fails = 54
L2_cache_bank[2]: Access = 11744, Miss = 5644, Miss_rate = 0.481, Pending_hits = 0, Reservation_fails = 13
L2_cache_bank[3]: Access = 9576, Miss = 4140, Miss_rate = 0.432, Pending_hits = 0, Reservation_fails = 0
L2_cache_bank[4]: Access = 11744, Miss = 5636, Miss_rate = 0.480, Pending_hits = 0, Reservation_fails = 4
L2_cache_bank[5]: Access = 9576, Miss = 4168, Miss_rate = 0.435, Pending_hits = 0, Reservation_fails = 13
L2_cache_bank[6]: Access = 11744, Miss = 5664, Miss_rate = 0.482, Pending_hits = 0, Reservation_fails = 20
L2_cache_bank[7]: Access = 9576, Miss = 4144, Miss_rate = 0.433, Pending_hits = 0, Reservation_fails = 79
L2_cache_bank[8]: Access = 11744, Miss = 5676, Miss_rate = 0.483, Pending_hits = 0, Reservation_fails = 0
L2_cache_bank[9]: Access = 9576, Miss = 4140, Miss_rate = 0.432, Pending_hits = 0, Reservation_fails = 0
L2_cache_bank[10]: Access = 11744, Miss = 5676, Miss_rate = 0.483, Pending_hits = 0, Reservation_fails = 24
L2_cache_bank[11]: Access = 9576, Miss = 4136, Miss_rate = 0.432, Pending_hits = 0, Reservation_fails = 15
L2_cache_bank[12]: Access = 11744, Miss = 5660, Miss_rate = 0.482, Pending_hits = 0, Reservation_fails = 23
L2_cache_bank[13]: Access = 9576, Miss = 4136, Miss_rate = 0.432, Pending_hits = 0, Reservation_fails = 38
L2_cache_bank[14]: Access = 11744, Miss = 5656, Miss_rate = 0.482, Pending_hits = 0, Reservation_fails = 1
L2_cache_bank[15]: Access = 9576, Miss = 4152, Miss_rate = 0.434, Pending_hits = 0, Reservation_fails = 104
L2_cache_bank[16]: Access = 5944, Miss = 2216, Miss_rate = 0.373, Pending_hits = 0, Reservation_fails = 0
L2_cache_bank[17]: Access = 4808, Miss = 1896, Miss_rate = 0.394, Pending_hits = 0, Reservation_fails = 0
L2_cache_bank[18]: Access = 5944, Miss = 2216, Miss_rate = 0.373, Pending_hits = 0, Reservation_fails = 0
L2_cache_bank[19]: Access = 4808, Miss = 1896, Miss_rate = 0.394, Pending_hits = 0, Reservation_fails = 0
L2_cache_bank[20]: Access = 5944, Miss = 2216, Miss_rate = 0.373, Pending_hits = 0, Reservation_fails = 0
L2_cache_bank[21]: Access = 4808, Miss = 1896, Miss_rate = 0.394, Pending_hits = 0, Reservation_fails = 0
L2_cache_bank[22]: Access = 5944, Miss = 2216, Miss_rate = 0.373, Pending_hits = 0, Reservation_fails = 0
L2_cache_bank[23]: Access = 4808, Miss = 1896, Miss_rate = 0.394, Pending_hits = 0, Reservation_fails = 0
L2_cache_bank[24]: Access = 5944, Miss = 2216, Miss_rate = 0.373, Pending_hits = 0, Reservation_fails = 0
L2_cache_bank[25]: Access = 4808, Miss = 1896, Miss_rate = 0.394, Pending_hits = 0, Reservation_fails = 0
L2_cache_bank[26]: Access = 5944, Miss = 2216, Miss_rate = 0.373, Pending_hits = 0, Reservation_fails = 0
L2_cache_bank[27]: Access = 4808, Miss = 1896, Miss_rate = 0.394, Pending_hits = 0, Reservation_fails = 0
L2_cache_bank[28]: Access = 5944, Miss = 2216, Miss_rate = 0.373, Pending_hits = 0, Reservation_fails = 0
L2_cache_bank[29]: Access = 4808, Miss = 1896, Miss_rate = 0.394, Pending_hits = 0, Reservation_fails = 0
L2_cache_bank[30]: Access = 5944, Miss = 2216, Miss_rate = 0.373, Pending_hits = 0, Reservation_fails = 0
L2_cache_bank[31]: Access = 4808, Miss = 1896, Miss_rate = 0.394, Pending_hits = 0, Reservation_fails = 0
L2_cache_bank[32]: Access = 5784, Miss = 2128, Miss_rate = 0.368, Pending_hits = 0, Reservation_fails = 0
L2_cache_bank[33]: Access = 5040, Miss = 1976, Miss_rate = 0.392, Pending_hits = 0, Reservation_fails = 0
L2_cache_bank[34]: Access = 5784, Miss = 2128, Miss_rate = 0.368, Pending_hits = 0, Reservation_fails = 0
L2_cache_bank[35]: Access = 5040, Miss = 1976, Miss_rate = 0.392, Pending_hits = 0, Reservation_fails = 0
L2_cache_bank[36]: Access = 5784, Miss = 2128, Miss_rate = 0.368, Pending_hits = 0, Reservation_fails = 0
L2_cache_bank[37]: Access = 5040, Miss = 1976, Miss_rate = 0.392, Pending_hits = 0, Reservation_fails = 0
L2_cache_bank[38]: Access = 5784, Miss = 2128, Miss_rate = 0.368, Pending_hits = 0, Reservation_fails = 0
L2_cache_bank[39]: Access = 5040, Miss = 1976, Miss_rate = 0.392, Pending_hits = 0, Reservation_fails = 0
L2_cache_bank[40]: Access = 5784, Miss = 2128, Miss_rate = 0.368, Pending_hits = 0, Reservation_fails = 0
L2_cache_bank[41]: Access = 5040, Miss = 1976, Miss_rate = 0.392, Pending_hits = 0, Reservation_fails = 0
L2_cache_bank[42]: Access = 5784, Miss = 2128, Miss_rate = 0.368, Pending_hits = 0, Reservation_fails = 0
L2_cache_bank[43]: Access = 5040, Miss = 1976, Miss_rate = 0.392, Pending_hits = 0, Reservation_fails = 0
L2_cache_bank[44]: Access = 5784, Miss = 2128, Miss_rate = 0.368, Pending_hits = 0, Reservation_fails = 0
L2_cache_bank[45]: Access = 5040, Miss = 1976, Miss_rate = 0.392, Pending_hits = 0, Reservation_fails = 0
L2_cache_bank[46]: Access = 5784, Miss = 2128, Miss_rate = 0.368, Pending_hits = 0, Reservation_fails = 0
L2_cache_bank[47]: Access = 5040, Miss = 1976, Miss_rate = 0.392, Pending_hits = 0, Reservation_fails = 0
L2_total_cache_accesses = 343168
L2_total_cache_misses = 144120
L2_total_cache_miss_rate = 0.4200
L2_total_cache_pending_hits = 0
L2_total_cache_reservation_fails = 388
L2_total_cache_breakdown:
	L2_cache_stats_breakdown[Stream_0][GLOBAL_ACC_R][HIT] = 41076
	L2_cache_stats_breakdown[Stream_0][GLOBAL_ACC_R][HIT_RESERVED] = 0
	L2_cache_stats_breakdown[Stream_0][GLOBAL_ACC_R][MISS] = 26563
	L2_cache_stats_breakdown[Stream_0][GLOBAL_ACC_R][RESERVATION_FAIL] = 354
	L2_cache_stats_breakdown[Stream_0][GLOBAL_ACC_R][SECTOR_MISS] = 79689
	L2_cache_stats_breakdown[Stream_0][GLOBAL_ACC_R][MSHR_HIT] = 0
	L2_cache_stats_breakdown[Stream_0][LOCAL_ACC_R][HIT] = 0
	L2_cache_stats_breakdown[Stream_0][LOCAL_ACC_R][HIT_RESERVED] = 0
	L2_cache_stats_breakdown[Stream_0][LOCAL_ACC_R][MISS] = 0
	L2_cache_stats_breakdown[Stream_0][LOCAL_ACC_R][RESERVATION_FAIL] = 0
	L2_cache_stats_breakdown[Stream_0][LOCAL_ACC_R][SECTOR_MISS] = 0
	L2_cache_stats_breakdown[Stream_0][LOCAL_ACC_R][MSHR_HIT] = 0
	L2_cache_stats_breakdown[Stream_0][CONST_ACC_R][HIT] = 0
	L2_cache_stats_breakdown[Stream_0][CONST_ACC_R][HIT_RESERVED] = 0
	L2_cache_stats_breakdown[Stream_0][CONST_ACC_R][MISS] = 0
	L2_cache_stats_breakdown[Stream_0][CONST_ACC_R][RESERVATION_FAIL] = 0
	L2_cache_stats_breakdown[Stream_0][CONST_ACC_R][SECTOR_MISS] = 0
	L2_cache_stats_breakdown[Stream_0][CONST_ACC_R][MSHR_HIT] = 0
	L2_cache_stats_breakdown[Stream_0][TEXTURE_ACC_R][HIT] = 0
	L2_cache_stats_breakdown[Stream_0][TEXTURE_ACC_R][HIT_RESERVED] = 0
	L2_cache_stats_breakdown[Stream_0][TEXTURE_ACC_R][MISS] = 0
	L2_cache_stats_breakdown[Stream_0][TEXTURE_ACC_R][RESERVATION_FAIL] = 0
	L2_cache_stats_breakdown[Stream_0][TEXTURE_ACC_R][SECTOR_MISS] = 0
	L2_cache_stats_breakdown[Stream_0][TEXTURE_ACC_R][MSHR_HIT] = 0
	L2_cache_stats_breakdown[Stream_0][GLOBAL_ACC_W][HIT] = 98304
	L2_cache_stats_breakdown[Stream_0][GLOBAL_ACC_W][HIT_RESERVED] = 0
	L2_cache_stats_breakdown[Stream_0][GLOBAL_ACC_W][MISS] = 0
	L2_cache_stats_breakdown[Stream_0][GLOBAL_ACC_W][RESERVATION_FAIL] = 0
	L2_cache_stats_breakdown[Stream_0][GLOBAL_ACC_W][SECTOR_MISS] = 0
	L2_cache_stats_breakdown[Stream_0][GLOBAL_ACC_W][MSHR_HIT] = 0
	L2_cache_stats_breakdown[Stream_0][LOCAL_ACC_W][HIT] = 0
	L2_cache_stats_breakdown[Stream_0][LOCAL_ACC_W][HIT_RESERVED] = 0
	L2_cache_stats_breakdown[Stream_0][LOCAL_ACC_W][MISS] = 0
	L2_cache_stats_breakdown[Stream_0][LOCAL_ACC_W][RESERVATION_FAIL] = 0
	L2_cache_stats_breakdown[Stream_0][LOCAL_ACC_W][SECTOR_MISS] = 0
	L2_cache_stats_breakdown[Stream_0][LOCAL_ACC_W][MSHR_HIT] = 0
	L2_cache_stats_breakdown[Stream_0][L1_WRBK_ACC][HIT] = 0
	L2_cache_stats_breakdown[Stream_0][L1_WRBK_ACC][HIT_RESERVED] = 0
	L2_cache_stats_breakdown[Stream_0][L1_WRBK_ACC][MISS] = 0
	L2_cache_stats_breakdown[Stream_0][L1_WRBK_ACC][RESERVATION_FAIL] = 0
	L2_cache_stats_breakdown[Stream_0][L1_WRBK_ACC][SECTOR_MISS] = 0
	L2_cache_stats_breakdown[Stream_0][L1_WRBK_ACC][MSHR_HIT] = 0
	L2_cache_stats_breakdown[Stream_0][L2_WRBK_ACC][HIT] = 0
	L2_cache_stats_breakdown[Stream_0][L2_WRBK_ACC][HIT_RESERVED] = 0
	L2_cache_stats_breakdown[Stream_0][L2_WRBK_ACC][MISS] = 0
	L2_cache_stats_breakdown[Stream_0][L2_WRBK_ACC][RESERVATION_FAIL] = 0
	L2_cache_stats_breakdown[Stream_0][L2_WRBK_ACC][SECTOR_MISS] = 0
	L2_cache_stats_breakdown[Stream_0][L2_WRBK_ACC][MSHR_HIT] = 0
	L2_cache_stats_breakdown[Stream_0][INST_ACC_R][HIT] = 0
	L2_cache_stats_breakdown[Stream_0][INST_ACC_R][HIT_RESERVED] = 0
	L2_cache_stats_breakdown[Stream_0][INST_ACC_R][MISS] = 0
	L2_cache_stats_breakdown[Stream_0][INST_ACC_R][RESERVATION_FAIL] = 0
	L2_cache_stats_breakdown[Stream_0][INST_ACC_R][SECTOR_MISS] = 0
	L2_cache_stats_breakdown[Stream_0][INST_ACC_R][MSHR_HIT] = 0
	L2_cache_stats_breakdown[Stream_0][L1_WR_ALLOC_R][HIT] = 0
	L2_cache_stats_breakdown[Stream_0][L1_WR_ALLOC_R][HIT_RESERVED] = 0
	L2_cache_stats_breakdown[Stream_0][L1_WR_ALLOC_R][MISS] = 0
	L2_cache_stats_breakdown[Stream_0][L1_WR_ALLOC_R][RESERVATION_FAIL] = 0
	L2_cache_stats_breakdown[Stream_0][L1_WR_ALLOC_R][SECTOR_MISS] = 0
	L2_cache_stats_breakdown[Stream_0][L1_WR_ALLOC_R][MSHR_HIT] = 0
	L2_cache_stats_breakdown[Stream_0][L2_WR_ALLOC_R][HIT] = 0
	L2_cache_stats_breakdown[Stream_0][L2_WR_ALLOC_R][HIT_RESERVED] = 0
	L2_cache_stats_breakdown[Stream_0][L2_WR_ALLOC_R][MISS] = 0
	L2_cache_stats_breakdown[Stream_0][L2_WR_ALLOC_R][RESERVATION_FAIL] = 0
	L2_cache_stats_breakdown[Stream_0][L2_WR_ALLOC_R][SECTOR_MISS] = 0
	L2_cache_stats_breakdown[Stream_0][L2_WR_ALLOC_R][MSHR_HIT] = 0
	L2_cache_stats_breakdown[Stream_0][GLOBAL_ACC_R][TOTAL_ACCESS] = 147328
	L2_cache_stats_breakdown[Stream_0][GLOBAL_ACC_W][TOTAL_ACCESS] = 98304
L2_total_cache_reservation_fail_breakdown:
	L2_cache_stats_fail_breakdown[Stream_0][GLOBAL_ACC_R][MSHR_ENRTY_FAIL] = 354
L2_cache_data_port_util = 0.186
L2_cache_fill_port_util = 0.135

icnt_total_pkts_mem_to_simt=343168
icnt_total_pkts_simt_to_mem=343168
LD_mem_lat_dist  0 0 0 0 0 0 0 0 0 0 0 0 0 0 0 0 0 0 0 0 0 0 0 0 0 0 0
ST_mem_lat_dist  0 0 0 0 0 0 0 0 0 0 0 0 0 0 0 0 0 0 0 0 0 0 0 0 0 0 0
----------------------------Interconnect-DETAILS--------------------------------
Req_Network_injected_packets_num = 343168
Req_Network_cycles = 22265
Req_Network_injected_packets_per_cycle =      15.4129 
Req_Network_conflicts_per_cycle =      16.9113
Req_Network_conflicts_per_cycle_util =      17.8281
Req_Bank_Level_Parallism =      16.2485
Req_Network_in_buffer_full_per_cycle =       4.6707
Req_Network_in_buffer_avg_util =     150.9879
Req_Network_out_buffer_full_per_cycle =       0.1005
Req_Network_out_buffer_avg_util =      38.0907

Reply_Network_injected_packets_num = 343168
Reply_Network_cycles = 22265
Reply_Network_injected_packets_per_cycle =       15.4129
Reply_Network_conflicts_per_cycle =       19.1682
Reply_Network_conflicts_per_cycle_util =      20.2736
Reply_Bank_Level_Parallism =      16.3017
Reply_Network_in_buffer_full_per_cycle =       0.0502
Reply_Network_in_buffer_avg_util =      45.7753
Reply_Network_out_buffer_full_per_cycle =       0.0000
Reply_Network_out_buffer_avg_util =       0.3853
----------------------------END-of-Interconnect-DETAILS-------------------------
GLOBAL_TIMER=22265, gpu_tot_sim_cycle=22265, gpu_sim_cycle=6351
gpgpu_sim::update_stats() last_streamID=0, last_uid=4, start_cycle=15914, end_cycle=22264, sim cycle for this kernel is 6351


gpgpu_simulation_time = 0 days, 0 hrs, 0 min, 48 sec (48 sec)
gpgpu_simulation_rate = 294912 (inst/sec)
gpgpu_simulation_rate = 463 (cycle/sec)
gpgpu_silicon_slowdown = 2591792x
GPGPU-Sim: *** simulation thread exiting ***
GPGPU-Sim: *** exit detected ***
