Accel-Sim [build accelsim-commit-2260456ea5e6a1420f5734f145a4b7d8ab1d4737_modified_1.0]

        *** GPGPU-Sim Simulator Version 4.2.0  [build gpgpu-sim_git-commit-13c67115070dc2f0876254a790d0238073ca364a_modified_2.0] ***


GPGPU-Sim: Configuration options:

-save_embedded_ptx                      0 # saves ptx files embedded in binary as <n>.ptx
-keep                                   0 # keep intermediate files created by GPGPU-Sim when interfacing with external programs
-gpgpu_ptx_save_converted_ptxplus                    0 # Saved converted ptxplus to a file
-gpgpu_occupancy_sm_number                   70 # The SM number to pass to ptxas when getting register usage for computing GPU occupancy. This parameter is required in the config.
-ptx_opcode_latency_int      4,13,4,5,145,32 # Opcode latencies for integers <ADD,MAX,MUL,MAD,DIV,SHFL>Default 1,1,19,25,145,32
-ptx_opcode_latency_fp          4,13,4,5,39 # Opcode latencies for single precision floating points <ADD,MAX,MUL,MAD,DIV>Default 1,1,1,1,30
-ptx_opcode_latency_dp         8,19,8,8,330 # Opcode latencies for double precision floating points <ADD,MAX,MUL,MAD,DIV>Default 8,8,8,8,335
-ptx_opcode_latency_sfu                  100 # Opcode latencies for SFU instructionsDefault 8
-ptx_opcode_latency_tesnor                   64 # Opcode latencies for Tensor instructionsDefault 64
-ptx_opcode_initiation_int          2,2,2,2,8,4 # Opcode initiation intervals for integers <ADD,MAX,MUL,MAD,DIV,SHFL>Default 1,1,4,4,32,4
-ptx_opcode_initiation_fp            2,2,2,2,4 # Opcode initiation intervals for single precision floating points <ADD,MAX,MUL,MAD,DIV>Default 1,1,1,1,5
-ptx_opcode_initiation_dp          4,4,4,4,130 # Opcode initiation intervals for double precision floating points <ADD,MAX,MUL,MAD,DIV>Default 8,8,8,8,130
-ptx_opcode_initiation_sfu                    8 # Opcode initiation intervals for sfu instructionsDefault 8
-ptx_opcode_initiation_tensor                   64 # Opcode initiation intervals for tensor instructionsDefault 64
-cdp_latency         7200,8000,100,12000,1600 # CDP API latency <cudaStreamCreateWithFlags, cudaGetParameterBufferV2_init_perWarp, cudaGetParameterBufferV2_perKernel, cudaLaunchDeviceV2_init_perWarp, cudaLaunchDevicV2_perKernel>Default 7200,8000,100,12000,1600
-network_mode                           2 # Interconnection network mode
-inter_config_file                   mesh # Interconnection network config file
-icnt_in_buffer_limit                  512 # in_buffer_limit
-icnt_out_buffer_limit                  512 # out_buffer_limit
-icnt_subnets                           2 # subnets
-icnt_arbiter_algo                      1 # arbiter_algo
-icnt_verbose                           0 # inct_verbose
-icnt_grant_cycles                      1 # grant_cycles
-gpgpu_ptx_use_cuobjdump                    1 # Use cuobjdump to extract ptx and sass from binaries
-gpgpu_experimental_lib_support                    0 # Try to extract code from cuda libraries [Broken because of unknown cudaGetExportTable]
-checkpoint_option                      0 #  checkpointing flag (0 = no checkpoint)
-checkpoint_kernel                      1 #  checkpointing during execution of which kernel (1- 1st kernel)
-checkpoint_CTA                         0 #  checkpointing after # of CTA (< less than total CTA)
-resume_option                          0 #  resume flag (0 = no resume)
-resume_kernel                          0 #  Resume from which kernel (1= 1st kernel)
-resume_CTA                             0 #  resume from which CTA 
-checkpoint_CTA_t                       0 #  resume from which CTA 
-checkpoint_insn_Y                      0 #  resume from which CTA 
-gpgpu_ptx_convert_to_ptxplus                    0 # Convert SASS (native ISA) to ptxplus and run ptxplus
-gpgpu_ptx_force_max_capability                   70 # Force maximum compute capability
-gpgpu_ptx_inst_debug_to_file                    0 # Dump executed instructions' debug information to file
-gpgpu_ptx_inst_debug_file       inst_debug.txt # Executed instructions' debug output file
-gpgpu_ptx_inst_debug_thread_uid                    1 # Thread UID for executed instructions' debug output
-gpgpu_simd_model                       1 # 1 = post-dominator
-gpgpu_shader_core_pipeline              2048:32 # shader core pipeline config, i.e., {<nthread>:<warpsize>}
-gpgpu_tex_cache:l1  N:4:128:256,L:R:m:N:L,T:512:8,128:2 # per-shader L1 texture cache  (READ-ONLY) config  {<nsets>:<bsize>:<assoc>,<rep>:<wr>:<alloc>:<wr_alloc>,<mshr>:<N>:<merge>,<mq>:<rf>}
-gpgpu_const_cache:l1 N:128:64:8,L:R:f:N:L,S:2:64,4 # per-shader L1 constant memory cache  (READ-ONLY) config  {<nsets>:<bsize>:<assoc>,<rep>:<wr>:<alloc>:<wr_alloc>,<mshr>:<N>:<merge>,<mq>} 
-gpgpu_cache:il1     N:64:128:16,L:R:f:N:L,S:2:48,4 # shader L1 instruction cache config  {<nsets>:<bsize>:<assoc>,<rep>:<wr>:<alloc>:<wr_alloc>,<mshr>:<N>:<merge>,<mq>} 
-gpgpu_cache:dl1     S:4:128:64,L:T:m:L:L,A:512:8,16:0,32 # per-shader L1 data cache config  {<nsets>:<bsize>:<assoc>,<rep>:<wr>:<alloc>:<wr_alloc>,<mshr>:<N>:<merge>,<mq> | none}
-gpgpu_l1_cache_write_ratio                   25 # L1D write ratio
-gpgpu_l1_banks                         4 # The number of L1 cache banks
-gpgpu_l1_banks_byte_interleaving                   32 # l1 banks byte interleaving granularity
-gpgpu_l1_banks_hashing_function                    0 # l1 banks hashing function
-gpgpu_l1_latency                      20 # L1 Hit Latency
-gpgpu_smem_latency                    20 # smem Latency
-gpgpu_cache:dl1PrefL1                 none # per-shader L1 data cache config  {<nsets>:<bsize>:<assoc>,<rep>:<wr>:<alloc>:<wr_alloc>,<mshr>:<N>:<merge>,<mq> | none}
-gpgpu_cache:dl1PrefShared                 none # per-shader L1 data cache config  {<nsets>:<bsize>:<assoc>,<rep>:<wr>:<alloc>:<wr_alloc>,<mshr>:<N>:<merge>,<mq> | none}
-gpgpu_gmem_skip_L1D                    0 # global memory access skip L1D cache (implements -Xptxas -dlcm=cg, default=no skip)
-gpgpu_perfect_mem                      0 # enable perfect memory mode (no cache miss)
-n_regfile_gating_group                    4 # group of lanes that should be read/written together)
-gpgpu_clock_gated_reg_file                    0 # enable clock gated reg file for power calculations
-gpgpu_clock_gated_lanes                    0 # enable clock gated lanes for power calculations
-gpgpu_shader_registers                65536 # Number of registers per shader core. Limits number of concurrent CTAs. (default 8192)
-gpgpu_registers_per_block                65536 # Maximum number of registers per CTA. (default 8192)
-gpgpu_ignore_resources_limitation                    0 # gpgpu_ignore_resources_limitation (default 0)
-gpgpu_shader_cta                      32 # Maximum number of concurrent CTAs in shader (default 32)
-gpgpu_num_cta_barriers                   16 # Maximum number of named barriers per CTA (default 16)
-gpgpu_n_clusters                      40 # number of processing clusters
-gpgpu_n_cores_per_cluster                    2 # number of simd cores per cluster
-gpgpu_n_cluster_ejection_buffer_size                   32 # number of packets in ejection buffer
-gpgpu_n_ldst_response_buffer_size                    2 # number of response packets in ld/st unit ejection buffer
-gpgpu_shmem_per_block                65536 # Size of shared memory per thread block or CTA (default 48kB)
-gpgpu_shmem_size                   98304 # Size of shared memory per shader core (default 16kB)
-gpgpu_shmem_option       0,8,16,32,64,96 # Option list of shared memory sizes
-gpgpu_unified_l1d_size                  128 # Size of unified data cache(L1D + shared memory) in KB
-gpgpu_adaptive_cache_config                    1 # adaptive_cache_config
-gpgpu_shmem_sizeDefault                98304 # Size of shared memory per shader core (default 16kB)
-gpgpu_shmem_size_PrefL1                16384 # Size of shared memory per shader core (default 16kB)
-gpgpu_shmem_size_PrefShared                16384 # Size of shared memory per shader core (default 16kB)
-gpgpu_shmem_num_banks                   32 # Number of banks in the shared memory in each shader core (default 16)
-gpgpu_shmem_limited_broadcast                    0 # Limit shared memory to do one broadcast per cycle (default on)
-gpgpu_shmem_warp_parts                    1 # Number of portions a warp is divided into for shared memory bank conflict check 
-gpgpu_mem_unit_ports                    1 # The number of memory transactions allowed per core cycle
-gpgpu_shmem_warp_parts                    1 # Number of portions a warp is divided into for shared memory bank conflict check 
-gpgpu_warpdistro_shader                   -1 # Specify which shader core to collect the warp size distribution from
-gpgpu_warp_issue_shader                    0 # Specify which shader core to collect the warp issue distribution from
-gpgpu_local_mem_map                    1 # Mapping from local memory space address to simulated GPU physical address space (default = enabled)
-gpgpu_num_reg_banks                    8 # Number of register banks (default = 8)
-gpgpu_reg_bank_use_warp_id                    0 # Use warp ID in mapping registers to banks (default = off)
-gpgpu_sub_core_model                    1 # Sub Core Volta/Pascal model (default = off)
-gpgpu_enable_specialized_operand_collector                    0 # enable_specialized_operand_collector
-gpgpu_operand_collector_num_units_sp                    4 # number of collector units (default = 4)
-gpgpu_operand_collector_num_units_dp                    0 # number of collector units (default = 0)
-gpgpu_operand_collector_num_units_sfu                    4 # number of collector units (default = 4)
-gpgpu_operand_collector_num_units_int                    0 # number of collector units (default = 0)
-gpgpu_operand_collector_num_units_tensor_core                    4 # number of collector units (default = 4)
-gpgpu_operand_collector_num_units_mem                    2 # number of collector units (default = 2)
-gpgpu_operand_collector_num_units_gen                    8 # number of collector units (default = 0)
-gpgpu_operand_collector_num_in_ports_sp                    1 # number of collector unit in ports (default = 1)
-gpgpu_operand_collector_num_in_ports_dp                    0 # number of collector unit in ports (default = 0)
-gpgpu_operand_collector_num_in_ports_sfu                    1 # number of collector unit in ports (default = 1)
-gpgpu_operand_collector_num_in_ports_int                    0 # number of collector unit in ports (default = 0)
-gpgpu_operand_collector_num_in_ports_tensor_core                    1 # number of collector unit in ports (default = 1)
-gpgpu_operand_collector_num_in_ports_mem                    1 # number of collector unit in ports (default = 1)
-gpgpu_operand_collector_num_in_ports_gen                    8 # number of collector unit in ports (default = 0)
-gpgpu_operand_collector_num_out_ports_sp                    1 # number of collector unit in ports (default = 1)
-gpgpu_operand_collector_num_out_ports_dp                    0 # number of collector unit in ports (default = 0)
-gpgpu_operand_collector_num_out_ports_sfu                    1 # number of collector unit in ports (default = 1)
-gpgpu_operand_collector_num_out_ports_int                    0 # number of collector unit in ports (default = 0)
-gpgpu_operand_collector_num_out_ports_tensor_core                    1 # number of collector unit in ports (default = 1)
-gpgpu_operand_collector_num_out_ports_mem                    1 # number of collector unit in ports (default = 1)
-gpgpu_operand_collector_num_out_ports_gen                    8 # number of collector unit in ports (default = 0)
-gpgpu_coalesce_arch                   60 # Coalescing arch (GT200 = 13, Fermi = 20)
-gpgpu_num_sched_per_core                    4 # Number of warp schedulers per core
-gpgpu_max_insn_issue_per_warp                    1 # Max number of instructions that can be issued per warp in one cycle by scheduler (either 1 or 2)
-gpgpu_dual_issue_diff_exec_units                    1 # should dual issue use two different execution unit resources (Default = 1)
-gpgpu_simt_core_sim_order                    1 # Select the simulation order of cores in a cluster (0=Fix, 1=Round-Robin)
-gpgpu_pipeline_widths 4,4,4,4,4,4,4,4,4,4,8,4,4 # Pipeline widths ID_OC_SP,ID_OC_DP,ID_OC_INT,ID_OC_SFU,ID_OC_MEM,OC_EX_SP,OC_EX_DP,OC_EX_INT,OC_EX_SFU,OC_EX_MEM,EX_WB,ID_OC_TENSOR_CORE,OC_EX_TENSOR_CORE
-gpgpu_tensor_core_avail                    1 # Tensor Core Available (default=0)
-gpgpu_num_sp_units                     4 # Number of SP units (default=1)
-gpgpu_num_dp_units                     4 # Number of DP units (default=0)
-gpgpu_num_int_units                    4 # Number of INT units (default=0)
-gpgpu_num_sfu_units                    4 # Number of SF units (default=1)
-gpgpu_num_tensor_core_units                    4 # Number of tensor_core units (default=1)
-gpgpu_num_mem_units                    1 # Number if ldst units (default=1) WARNING: not hooked up to anything
-gpgpu_scheduler                      lrr # Scheduler configuration: < lrr | gto | two_level_active > If two_level_active:<num_active_warps>:<inner_prioritization>:<outer_prioritization>For complete list of prioritization values see shader.h enum scheduler_prioritization_typeDefault: gto
-gpgpu_concurrent_kernel_sm                    1 # Support concurrent kernels on a SM (default = disabled)
-gpgpu_perfect_inst_const_cache                    1 # perfect inst and const cache mode, so all inst and const hits in the cache(default = disabled)
-gpgpu_inst_fetch_throughput                    4 # the number of fetched intruction per warp each cycle
-gpgpu_reg_file_port_throughput                    2 # the number ports of the register file
-specialized_unit_1         1,4,4,4,4,BRA # specialized unit config {<enabled>,<num_units>:<latency>:<initiation>,<ID_OC_SPEC>:<OC_EX_SPEC>,<NAME>}
-specialized_unit_2       1,4,200,4,4,TEX # specialized unit config {<enabled>,<num_units>:<latency>:<initiation>,<ID_OC_SPEC>:<OC_EX_SPEC>,<NAME>}
-specialized_unit_3      1,4,8,4,4,TENSOR # specialized unit config {<enabled>,<num_units>:<latency>:<initiation>,<ID_OC_SPEC>:<OC_EX_SPEC>,<NAME>}
-specialized_unit_4         0,4,4,4,4,BRA # specialized unit config {<enabled>,<num_units>:<latency>:<initiation>,<ID_OC_SPEC>:<OC_EX_SPEC>,<NAME>}
-specialized_unit_5         0,4,4,4,4,BRA # specialized unit config {<enabled>,<num_units>:<latency>:<initiation>,<ID_OC_SPEC>:<OC_EX_SPEC>,<NAME>}
-specialized_unit_6         0,4,4,4,4,BRA # specialized unit config {<enabled>,<num_units>:<latency>:<initiation>,<ID_OC_SPEC>:<OC_EX_SPEC>,<NAME>}
-specialized_unit_7         0,4,4,4,4,BRA # specialized unit config {<enabled>,<num_units>:<latency>:<initiation>,<ID_OC_SPEC>:<OC_EX_SPEC>,<NAME>}
-specialized_unit_8         0,4,4,4,4,BRA # specialized unit config {<enabled>,<num_units>:<latency>:<initiation>,<ID_OC_SPEC>:<OC_EX_SPEC>,<NAME>}
-gpgpu_perf_sim_memcpy                    1 # Fill the L2 cache on memcpy
-gpgpu_simple_dram_model                    0 # simple_dram_model with fixed latency and BW
-gpgpu_dram_scheduler                    1 # 0 = fifo, 1 = FR-FCFS (defaul)
-gpgpu_dram_partition_queues          64:64:64:64 # i2$:$2d:d2$:$2i
-l2_ideal                               0 # Use a ideal L2 cache that always hit
-gpgpu_cache:dl2     S:32:128:24,L:B:m:L:P,A:192:4,32:0,32 # unified banked L2 data cache config  {<nsets>:<bsize>:<assoc>,<rep>:<wr>:<alloc>:<wr_alloc>,<mshr>:<N>:<merge>,<mq>}
-gpgpu_cache:dl2_texture_only                    0 # L2 cache used for texture only
-gpgpu_n_mem                           24 # number of memory modules (e.g. memory controllers) in gpu
-gpgpu_n_sub_partition_per_mchannel                    2 # number of memory subpartition in each memory module
-gpgpu_n_mem_per_ctrlr                    1 # number of memory chips per memory controller
-gpgpu_memlatency_stat                   14 # track and display latency statistics 0x2 enables MC, 0x4 enables queue logs
-gpgpu_frfcfs_dram_sched_queue_size                   64 # 0 = unlimited (default); # entries per chip
-gpgpu_dram_return_queue_size                  192 # 0 = unlimited (default); # entries per chip
-gpgpu_dram_buswidth                   16 # default = 4 bytes (8 bytes per cycle at DDR)
-gpgpu_dram_burst_length                    2 # Burst length of each DRAM request (default = 4 data bus cycle)
-dram_data_command_freq_ratio                    2 # Frequency ratio between DRAM data bus and command bus (default = 2 times, i.e. DDR)
-gpgpu_dram_timing_opt nbk=16:CCD=1:RRD=3:RCD=12:RAS=28:RP=12:RC=40: CL=12:WL=2:CDLR=3:WR=10:nbkgrp=4:CCDL=2:RTPL=3 # DRAM timing parameters = {nbk:tCCD:tRRD:tRCD:tRAS:tRP:tRC:CL:WL:tCDLR:tWR:nbkgrp:tCCDL:tRTPL}
-gpgpu_l2_rop_latency                  160 # ROP queue latency (default 85)
-dram_latency                         100 # DRAM latency (default 30)
-dram_dual_bus_interface                  257 # dual_bus_interface (default = 0) 
-dram_bnk_indexing_policy                    1 # dram_bnk_indexing_policy (0 = normal indexing, 1 = Xoring with the higher bits) (Default = 0)
-dram_bnkgrp_indexing_policy                    1 # dram_bnkgrp_indexing_policy (0 = take higher bits, 1 = take lower bits) (Default = 0)
-dram_seperate_write_queue_enable                    1 # Seperate_Write_Queue_Enable
-dram_write_queue_size           128:108:32 # Write_Queue_Size
-dram_elimnate_rw_turnaround                    0 # elimnate_rw_turnaround i.e set tWTR and tRTW = 0
-icnt_flit_size                        40 # icnt_flit_size
-gpgpu_mem_addr_mapping dramid@8;00000000.00000000.00000000.00000000.0000RRRR.RRRRRRRR.RBBBCCCB.CCCSSSSS # mapping memory address to dram model {dramid@<start bit>;<memory address map>}
-gpgpu_mem_addr_test                    0 # run sweep test to check address mapping for aliased address
-gpgpu_mem_address_mask                    1 # 0 = old addressing mask, 1 = new addressing mask, 2 = new add. mask + flipped bank sel and chip sel bits
-gpgpu_memory_partition_indexing                    2 # 0 = no indexing, 1 = bitwise xoring, 2 = IPoly, 3 = custom indexing
-accelwattch_xml_file accelwattch_sass_sim.xml # AccelWattch XML file
-power_simulation_enabled                    0 # Turn on power simulator (1=On, 0=Off)
-power_per_cycle_dump                    0 # Dump detailed power output each cycle
-hw_perf_file_name            hw_perf.csv # Hardware Performance Statistics file
-hw_perf_bench_name                       # Kernel Name in Hardware Performance Statistics file
-power_simulation_mode                    0 # Switch performance counter input for power simulation (0=Sim, 1=HW, 2=HW-Sim Hybrid)
-dvfs_enabled                           0 # Turn on DVFS for power model
-aggregate_power_stats                    0 # Accumulate power across all kernels
-accelwattch_hybrid_perfsim_L1_RH                    0 # Get L1 Read Hits for Accelwattch-Hybrid from Accel-Sim
-accelwattch_hybrid_perfsim_L1_RM                    0 # Get L1 Read Misses for Accelwattch-Hybrid from Accel-Sim
-accelwattch_hybrid_perfsim_L1_WH                    0 # Get L1 Write Hits for Accelwattch-Hybrid from Accel-Sim
-accelwattch_hybrid_perfsim_L1_WM                    0 # Get L1 Write Misses for Accelwattch-Hybrid from Accel-Sim
-accelwattch_hybrid_perfsim_L2_RH                    0 # Get L2 Read Hits for Accelwattch-Hybrid from Accel-Sim
-accelwattch_hybrid_perfsim_L2_RM                    0 # Get L2 Read Misses for Accelwattch-Hybrid from Accel-Sim
-accelwattch_hybrid_perfsim_L2_WH                    0 # Get L2 Write Hits for Accelwattch-Hybrid from Accel-Sim
-accelwattch_hybrid_perfsim_L2_WM                    0 # Get L2 Write Misses for Accelwattch-Hybrid from Accel-Sim
-accelwattch_hybrid_perfsim_CC_ACC                    0 # Get Constant Cache Acesses for Accelwattch-Hybrid from Accel-Sim
-accelwattch_hybrid_perfsim_SHARED_ACC                    0 # Get Shared Memory Acesses for Accelwattch-Hybrid from Accel-Sim
-accelwattch_hybrid_perfsim_DRAM_RD                    0 # Get DRAM Reads for Accelwattch-Hybrid from Accel-Sim
-accelwattch_hybrid_perfsim_DRAM_WR                    0 # Get DRAM Writes for Accelwattch-Hybrid from Accel-Sim
-accelwattch_hybrid_perfsim_NOC                    0 # Get Interconnect Acesses for Accelwattch-Hybrid from Accel-Sim
-accelwattch_hybrid_perfsim_PIPE_DUTY                    0 # Get Pipeline Duty Cycle Acesses for Accelwattch-Hybrid from Accel-Sim
-accelwattch_hybrid_perfsim_NUM_SM_IDLE                    0 # Get Number of Idle SMs for Accelwattch-Hybrid from Accel-Sim
-accelwattch_hybrid_perfsim_CYCLES                    0 # Get Executed Cycles for Accelwattch-Hybrid from Accel-Sim
-accelwattch_hybrid_perfsim_VOLTAGE                    0 # Get Chip Voltage for Accelwattch-Hybrid from Accel-Sim
-power_trace_enabled                    0 # produce a file for the power trace (1=On, 0=Off)
-power_trace_zlevel                     6 # Compression level of the power trace output log (0=no comp, 9=highest)
-steady_power_levels_enabled                    0 # produce a file for the steady power levels (1=On, 0=Off)
-steady_state_definition                  8:4 # allowed deviation:number of samples
-gpgpu_max_cycle                        0 # terminates gpu simulation early (0 = no limit)
-gpgpu_max_insn                         0 # terminates gpu simulation early (0 = no limit)
-gpgpu_max_cta                          0 # terminates gpu simulation early (0 = no limit)
-gpgpu_max_completed_cta                    0 # terminates gpu simulation early (0 = no limit)
-gpgpu_runtime_stat                   500 # display runtime statistics such as dram utilization {<freq>:<flag>}
-liveness_message_freq                    1 # Minimum number of seconds between simulation liveness messages (0 = always print)
-gpgpu_compute_capability_major                    7 # Major compute capability version number
-gpgpu_compute_capability_minor                    0 # Minor compute capability version number
-gpgpu_flush_l1_cache                    1 # Flush L1 cache at the end of each kernel call
-gpgpu_flush_l2_cache                    0 # Flush L2 cache at the end of each kernel call
-gpgpu_deadlock_detect                    1 # Stop the simulation at deadlock (1=on (default), 0=off)
-gpgpu_ptx_instruction_classification                    0 # if enabled will classify ptx instruction types per kernel (Max 255 kernels now)
-gpgpu_ptx_sim_mode                     0 # Select between Performance (default) or Functional simulation (1)
-gpgpu_clock_domains 1200.0:1200.0:1200.0:850.0 # Clock Domain Frequencies in MhZ {<Core Clock>:<ICNT Clock>:<L2 Clock>:<DRAM Clock>}
-gpgpu_max_concurrent_kernel                  128 # maximum kernels that can run concurrently on GPU, set this value according to max resident grids for your compute capability
-gpgpu_cflog_interval                    0 # Interval between each snapshot in control flow logger
-visualizer_enabled                     0 # Turn on visualizer output (1=On, 0=Off)
-visualizer_outputfile                 NULL # Specifies the output log file for visualizer
-visualizer_zlevel                      6 # Compression level of the visualizer output log (0=no comp, 9=highest)
-gpgpu_stack_size_limit                 1024 # GPU thread stack size
-gpgpu_heap_size_limit              8388608 # GPU malloc heap size 
-gpgpu_runtime_sync_depth_limit                    2 # GPU device runtime synchronize depth
-gpgpu_runtime_pending_launch_count_limit                 2048 # GPU device runtime pending launch count
-trace_enabled                          0 # Turn on traces
-trace_components                    none # comma seperated list of traces to enable. Complete list found in trace_streams.tup. Default none
-trace_sampling_core                    0 # The core which is printed using CORE_DPRINTF. Default 0
-trace_sampling_memory_partition                   -1 # The memory partition which is printed using MEMPART_DPRINTF. Default -1 (i.e. all)
-enable_ptx_file_line_stats                    1 # Turn on PTX source line statistic profiling. (1 = On)
-ptx_line_stats_filename gpgpu_inst_stats.txt # Output file for PTX source line statistics.
-gpgpu_kernel_launch_latency                    0 # Kernel launch latency in cycles. Default: 0
-gpgpu_cdp_enabled                      0 # Turn on CDP
-gpgpu_TB_launch_latency                    0 # thread block launch latency in cycles. Default: 0
-trace               ./util/tracer_nvbit/traces/kernelslist.g # traces kernel filetraces kernel file directory
-trace_opcode_latency_initiation_int                  2,2 # Opcode latencies and initiation for integers in trace driven mode <latency,initiation>
-trace_opcode_latency_initiation_sp                  2,2 # Opcode latencies and initiation for sp in trace driven mode <latency,initiation>
-trace_opcode_latency_initiation_dp                  8,4 # Opcode latencies and initiation for dp in trace driven mode <latency,initiation>
-trace_opcode_latency_initiation_sfu                 20,8 # Opcode latencies and initiation for sfu in trace driven mode <latency,initiation>
-trace_opcode_latency_initiation_tensor                  8,4 # Opcode latencies and initiation for tensor in trace driven mode <latency,initiation>
-trace_opcode_latency_initiation_spec_op_1                  4,4 # specialized unit config <latency,initiation>
-trace_opcode_latency_initiation_spec_op_2                200,4 # specialized unit config <latency,initiation>
-trace_opcode_latency_initiation_spec_op_3                  8,4 # specialized unit config <latency,initiation>
-trace_opcode_latency_initiation_spec_op_4                  4,4 # specialized unit config <latency,initiation>
-trace_opcode_latency_initiation_spec_op_5                  4,4 # specialized unit config <latency,initiation>
-trace_opcode_latency_initiation_spec_op_6                  4,4 # specialized unit config <latency,initiation>
-trace_opcode_latency_initiation_spec_op_7                  4,4 # specialized unit config <latency,initiation>
-trace_opcode_latency_initiation_spec_op_8                  4,4 # specialized unit config <latency,initiation>
DRAM Timing Options:
nbk                                    16 # number of banks
CCD                                     1 # column to column delay
RRD                                     3 # minimal delay between activation of rows in different banks
RCD                                    12 # row to column delay
RAS                                    28 # time needed to activate row
RP                                     12 # time needed to precharge (deactivate) row
RC                                     40 # row cycle time
CDLR                                    3 # switching from write to read (changes tWTR)
WR                                     10 # last data-in to row precharge
CL                                     12 # CAS latency
WL                                      2 # Write latency
nbkgrp                                  4 # number of bank groups
CCDL                                    2 # column to column delay between accesses to different bank groups
RTPL                                    3 # read to precharge delay between accesses to different bank groups
Total number of memory sub partition = 48
addr_dec_mask[CHIP]  = 0000000000000000 	high:64 low:0
addr_dec_mask[BK]    = 0000000000007100 	high:15 low:8
addr_dec_mask[ROW]   = 000000000fff8000 	high:28 low:15
addr_dec_mask[COL]   = 0000000000000eff 	high:12 low:0
addr_dec_mask[BURST] = 000000000000001f 	high:5 low:0
sub_partition_id_mask = 0000000000000100
GPGPU-Sim uArch: clock freqs: 1200000000.000000:1200000000.000000:1200000000.000000:850000000.000000
GPGPU-Sim uArch: clock periods: 0.00000000083333333333:0.00000000083333333333:0.00000000083333333333:0.00000000117647058824
*** Initializing Memory Statistics ***
GPGPU-Sim uArch: performance model initialization complete.
launching memcpy command : MemcpyHtoD,0x00007f6f5f100000,1048576
launching memcpy command : MemcpyHtoD,0x00007f6f5f800000,1048576
launching memcpy command : MemcpyHtoD,0x00007f6f5f900000,1048576
launching memcpy command : MemcpyHtoD,0x00007f6f5fa00000,1048576
Processing kernel ./util/tracer_nvbit/traces/kernel-1.traceg
-kernel name = _Z5saxpyifPfS_
-kernel id = 1
-grid dim = (256,1,1)
-block dim = (1024,1,1)
-shmem = 0
-nregs = 10
-binary version = 70
-cuda stream id = 0
-shmem base_addr = 0x00007f6f95000000
-local mem base_addr = 0x00007f6f93000000
-nvbit version = 1.5.3
-accelsim tracer version = 3
Header info loaded for kernel command : ./util/tracer_nvbit/traces/kernel-1.traceg
Processing kernel ./util/tracer_nvbit/traces/kernel-2.traceg
-kernel name = _Z5scaleifPf
-kernel id = 2
-grid dim = (256,1,1)
-block dim = (1024,1,1)
-shmem = 0
-nregs = 8
-binary version = 70
-cuda stream id = 0
-shmem base_addr = 0x00007f6f95000000
-local mem base_addr = 0x00007f6f93000000
-nvbit version = 1.5.3
-accelsim tracer version = 3
Header info loaded for kernel command : ./util/tracer_nvbit/traces/kernel-2.traceg
Processing kernel ./util/tracer_nvbit/traces/kernel-3.traceg
-kernel name = _Z5saxpyifPfS_
-kernel id = 3
-grid dim = (256,1,1)
-block dim = (1024,1,1)
-shmem = 0
-nregs = 10
-binary version = 70
-cuda stream id = 93864869445264
-shmem base_addr = 0x00007f6f95000000
-local mem base_addr = 0x00007f6f93000000
-nvbit version = 1.5.3
-accelsim tracer version = 3
Header info loaded for kernel command : ./util/tracer_nvbit/traces/kernel-3.traceg
Processing kernel ./util/tracer_nvbit/traces/kernel-4.traceg
-kernel name = _Z3addiPfS_
-kernel id = 4
-grid dim = (256,1,1)
-block dim = (1024,1,1)
-shmem = 0
-nregs = 12
-binary version = 70
-cuda stream id = 0
-shmem base_addr = 0x00007f6f95000000
-local mem base_addr = 0x00007f6f93000000
-nvbit version = 1.5.3
-accelsim tracer version = 3
Header info loaded for kernel command : ./util/tracer_nvbit/traces/kernel-4.traceg
launching kernel name: _Z5saxpyifPfS_ uid: 1
launching kernel name: _Z5saxpyifPfS_ uid: 3
GPGPU-Sim uArch: CTA/core = 2, limited by: threads
GPGPU-Sim: Reconfigure L1 cache to 128KB
thread block = 0,0,0
thread block = 1,0,0
thread block = 2,0,0
thread block = 3,0,0
thread block = 4,0,0
thread block = 5,0,0
thread block = 6,0,0
thread block = 7,0,0
thread block = 8,0,0
thread block = 9,0,0
thread block = 10,0,0
thread block = 11,0,0
thread block = 12,0,0
thread block = 13,0,0
thread block = 14,0,0
thread block = 15,0,0
thread block = 16,0,0
thread block = 17,0,0
thread block = 18,0,0
thread block = 19,0,0
thread block = 20,0,0
thread block = 21,0,0
thread block = 22,0,0
thread block = 23,0,0
thread block = 24,0,0
thread block = 25,0,0
thread block = 26,0,0
thread block = 27,0,0
thread block = 28,0,0
thread block = 29,0,0
thread block = 30,0,0
thread block = 31,0,0
thread block = 32,0,0
thread block = 33,0,0
thread block = 34,0,0
thread block = 35,0,0
thread block = 36,0,0
thread block = 37,0,0
thread block = 38,0,0
thread block = 39,0,0
thread block = 40,0,0
thread block = 41,0,0
thread block = 42,0,0
thread block = 43,0,0
thread block = 44,0,0
thread block = 45,0,0
thread block = 46,0,0
thread block = 47,0,0
thread block = 48,0,0
thread block = 49,0,0
thread block = 50,0,0
thread block = 51,0,0
thread block = 52,0,0
thread block = 53,0,0
thread block = 54,0,0
thread block = 55,0,0
thread block = 56,0,0
thread block = 57,0,0
thread block = 58,0,0
thread block = 59,0,0
thread block = 60,0,0
thread block = 61,0,0
thread block = 62,0,0
thread block = 63,0,0
thread block = 64,0,0
thread block = 65,0,0
thread block = 66,0,0
thread block = 67,0,0
thread block = 68,0,0
thread block = 69,0,0
thread block = 70,0,0
thread block = 71,0,0
thread block = 72,0,0
thread block = 73,0,0
thread block = 74,0,0
thread block = 75,0,0
thread block = 76,0,0
thread block = 77,0,0
thread block = 78,0,0
thread block = 79,0,0
thread block = 80,0,0
thread block = 81,0,0
thread block = 82,0,0
thread block = 83,0,0
thread block = 84,0,0
thread block = 85,0,0
thread block = 86,0,0
thread block = 87,0,0
thread block = 88,0,0
thread block = 89,0,0
thread block = 90,0,0
thread block = 91,0,0
thread block = 92,0,0
thread block = 93,0,0
thread block = 94,0,0
thread block = 95,0,0
thread block = 96,0,0
thread block = 97,0,0
thread block = 98,0,0
thread block = 99,0,0
thread block = 100,0,0
thread block = 101,0,0
thread block = 102,0,0
thread block = 103,0,0
thread block = 104,0,0
thread block = 105,0,0
thread block = 106,0,0
thread block = 107,0,0
thread block = 108,0,0
thread block = 109,0,0
thread block = 110,0,0
thread block = 111,0,0
thread block = 112,0,0
thread block = 113,0,0
thread block = 114,0,0
thread block = 115,0,0
thread block = 116,0,0
thread block = 117,0,0
thread block = 118,0,0
thread block = 119,0,0
thread block = 120,0,0
thread block = 121,0,0
thread block = 122,0,0
thread block = 123,0,0
thread block = 124,0,0
thread block = 125,0,0
thread block = 126,0,0
thread block = 127,0,0
thread block = 128,0,0
thread block = 129,0,0
thread block = 130,0,0
thread block = 131,0,0
thread block = 132,0,0
thread block = 133,0,0
thread block = 134,0,0
thread block = 135,0,0
thread block = 136,0,0
thread block = 137,0,0
thread block = 138,0,0
thread block = 139,0,0
thread block = 140,0,0
thread block = 141,0,0
thread block = 142,0,0
thread block = 143,0,0
thread block = 144,0,0
thread block = 145,0,0
thread block = 146,0,0
thread block = 147,0,0
thread block = 148,0,0
thread block = 149,0,0
thread block = 150,0,0
thread block = 151,0,0
thread block = 152,0,0
thread block = 153,0,0
thread block = 154,0,0
thread block = 155,0,0
thread block = 156,0,0
thread block = 157,0,0
thread block = 158,0,0
thread block = 159,0,0
thread block = 160,0,0
thread block = 161,0,0
thread block = 162,0,0
thread block = 163,0,0
thread block = 164,0,0
thread block = 165,0,0
thread block = 166,0,0
thread block = 167,0,0
thread block = 168,0,0
thread block = 169,0,0
thread block = 170,0,0
thread block = 171,0,0
thread block = 172,0,0
thread block = 173,0,0
thread block = 174,0,0
thread block = 175,0,0
thread block = 176,0,0
thread block = 177,0,0
thread block = 178,0,0
thread block = 179,0,0
thread block = 180,0,0
thread block = 181,0,0
thread block = 182,0,0
thread block = 183,0,0
thread block = 184,0,0
thread block = 185,0,0
thread block = 186,0,0
thread block = 187,0,0
thread block = 188,0,0
thread block = 189,0,0
thread block = 190,0,0
thread block = 191,0,0
thread block = 192,0,0
thread block = 193,0,0
thread block = 194,0,0
thread block = 195,0,0
thread block = 196,0,0
thread block = 197,0,0
thread block = 198,0,0
thread block = 199,0,0
thread block = 200,0,0
thread block = 201,0,0
thread block = 202,0,0
thread block = 203,0,0
thread block = 204,0,0
thread block = 205,0,0
thread block = 206,0,0
thread block = 207,0,0
thread block = 208,0,0
thread block = 209,0,0
thread block = 210,0,0
thread block = 211,0,0
thread block = 212,0,0
thread block = 213,0,0
thread block = 214,0,0
thread block = 215,0,0
thread block = 216,0,0
thread block = 217,0,0
thread block = 218,0,0
thread block = 219,0,0
thread block = 220,0,0
thread block = 221,0,0
thread block = 222,0,0
thread block = 223,0,0
thread block = 224,0,0
thread block = 225,0,0
thread block = 226,0,0
thread block = 227,0,0
thread block = 228,0,0
thread block = 229,0,0
thread block = 230,0,0
thread block = 231,0,0
thread block = 232,0,0
thread block = 233,0,0
thread block = 234,0,0
thread block = 235,0,0
thread block = 236,0,0
thread block = 237,0,0
thread block = 238,0,0
thread block = 239,0,0
thread block = 240,0,0
thread block = 241,0,0
thread block = 242,0,0
thread block = 243,0,0
thread block = 244,0,0
thread block = 245,0,0
thread block = 246,0,0
thread block = 247,0,0
thread block = 248,0,0
thread block = 249,0,0
thread block = 250,0,0
thread block = 251,0,0
thread block = 252,0,0
thread block = 253,0,0
thread block = 254,0,0
thread block = 255,0,0
GPGPU-Sim uArch: CTA/core = 2, limited by: threads
GPGPU-Sim: Reconfigure L1 cache to 128KB
thread block = 0,0,0
thread block = 1,0,0
thread block = 2,0,0
thread block = 3,0,0
thread block = 4,0,0
thread block = 5,0,0
thread block = 6,0,0
thread block = 7,0,0
thread block = 8,0,0
thread block = 9,0,0
thread block = 10,0,0
thread block = 11,0,0
thread block = 12,0,0
thread block = 13,0,0
thread block = 14,0,0
thread block = 15,0,0
thread block = 16,0,0
thread block = 17,0,0
thread block = 18,0,0
thread block = 19,0,0
thread block = 20,0,0
thread block = 21,0,0
thread block = 22,0,0
thread block = 23,0,0
thread block = 24,0,0
thread block = 25,0,0
thread block = 26,0,0
thread block = 27,0,0
thread block = 28,0,0
thread block = 29,0,0
thread block = 30,0,0
thread block = 31,0,0
thread block = 32,0,0
thread block = 33,0,0
thread block = 34,0,0
thread block = 35,0,0
thread block = 36,0,0
thread block = 37,0,0
thread block = 38,0,0
thread block = 39,0,0
thread block = 40,0,0
thread block = 41,0,0
thread block = 42,0,0
thread block = 43,0,0
thread block = 44,0,0
thread block = 45,0,0
thread block = 46,0,0
thread block = 47,0,0
thread block = 48,0,0
thread block = 49,0,0
thread block = 50,0,0
thread block = 51,0,0
thread block = 52,0,0
thread block = 53,0,0
thread block = 54,0,0
thread block = 55,0,0
thread block = 56,0,0
thread block = 57,0,0
thread block = 58,0,0
thread block = 59,0,0
thread block = 60,0,0
thread block = 61,0,0
thread block = 62,0,0
thread block = 63,0,0
thread block = 64,0,0
thread block = 65,0,0
thread block = 66,0,0
thread block = 67,0,0
thread block = 68,0,0
thread block = 69,0,0
thread block = 70,0,0
thread block = 71,0,0
thread block = 72,0,0
thread block = 73,0,0
thread block = 74,0,0
thread block = 75,0,0
thread block = 76,0,0
thread block = 77,0,0
thread block = 78,0,0
thread block = 79,0,0
thread block = 80,0,0
thread block = 81,0,0
thread block = 82,0,0
thread block = 83,0,0
thread block = 84,0,0
thread block = 85,0,0
thread block = 86,0,0
thread block = 87,0,0
thread block = 88,0,0
thread block = 89,0,0
thread block = 90,0,0
thread block = 91,0,0
thread block = 92,0,0
thread block = 93,0,0
thread block = 94,0,0
thread block = 95,0,0
thread block = 96,0,0
thread block = 97,0,0
thread block = 98,0,0
thread block = 99,0,0
thread block = 100,0,0
thread block = 101,0,0
thread block = 102,0,0
thread block = 103,0,0
thread block = 104,0,0
thread block = 105,0,0
thread block = 106,0,0
thread block = 107,0,0
thread block = 108,0,0
thread block = 109,0,0
thread block = 110,0,0
thread block = 111,0,0
thread block = 112,0,0
thread block = 113,0,0
thread block = 114,0,0
thread block = 115,0,0
thread block = 116,0,0
thread block = 117,0,0
thread block = 118,0,0
thread block = 119,0,0
thread block = 120,0,0
thread block = 121,0,0
thread block = 122,0,0
thread block = 123,0,0
thread block = 124,0,0
thread block = 125,0,0
thread block = 126,0,0
thread block = 127,0,0
thread block = 128,0,0
thread block = 129,0,0
thread block = 130,0,0
thread block = 131,0,0
thread block = 132,0,0
thread block = 133,0,0
thread block = 134,0,0
thread block = 135,0,0
thread block = 136,0,0
thread block = 137,0,0
thread block = 138,0,0
thread block = 139,0,0
thread block = 140,0,0
thread block = 141,0,0
thread block = 142,0,0
thread block = 143,0,0
thread block = 144,0,0
thread block = 145,0,0
thread block = 146,0,0
thread block = 147,0,0
thread block = 148,0,0
thread block = 149,0,0
thread block = 150,0,0
thread block = 151,0,0
thread block = 152,0,0
thread block = 153,0,0
thread block = 154,0,0
thread block = 155,0,0
thread block = 156,0,0
thread block = 157,0,0
thread block = 158,0,0
thread block = 159,0,0
thread block = 160,0,0
thread block = 161,0,0
thread block = 162,0,0
thread block = 163,0,0
thread block = 164,0,0
thread block = 165,0,0
thread block = 166,0,0
thread block = 167,0,0
thread block = 168,0,0
thread block = 169,0,0
thread block = 170,0,0
thread block = 171,0,0
thread block = 172,0,0
thread block = 173,0,0
thread block = 174,0,0
thread block = 175,0,0
thread block = 176,0,0
thread block = 177,0,0
thread block = 178,0,0
thread block = 179,0,0
thread block = 180,0,0
thread block = 181,0,0
thread block = 182,0,0
thread block = 183,0,0
thread block = 184,0,0
thread block = 185,0,0
thread block = 186,0,0
thread block = 187,0,0
thread block = 188,0,0
thread block = 189,0,0
thread block = 190,0,0
thread block = 191,0,0
thread block = 192,0,0
thread block = 193,0,0
thread block = 194,0,0
thread block = 195,0,0
thread block = 196,0,0
thread block = 197,0,0
thread block = 198,0,0
thread block = 199,0,0
thread block = 200,0,0
thread block = 201,0,0
thread block = 202,0,0
thread block = 203,0,0
thread block = 204,0,0
thread block = 205,0,0
thread block = 206,0,0
thread block = 207,0,0
thread block = 208,0,0
thread block = 209,0,0
thread block = 210,0,0
thread block = 211,0,0
thread block = 212,0,0
thread block = 213,0,0
thread block = 214,0,0
thread block = 215,0,0
thread block = 216,0,0
thread block = 217,0,0
thread block = 218,0,0
thread block = 219,0,0
thread block = 220,0,0
thread block = 221,0,0
thread block = 222,0,0
thread block = 223,0,0
thread block = 224,0,0
thread block = 225,0,0
thread block = 226,0,0
thread block = 227,0,0
thread block = 228,0,0
thread block = 229,0,0
thread block = 230,0,0
thread block = 231,0,0
Destroy streams for kernel 1: size 0
kernel_name = _Z5saxpyifPfS_ _Z5saxpyifPfS_ 
kernel_launch_uid = 1 3 
gpu_sim_cycle = 9461
gpu_sim_insn = 5899232
gpu_ipc =     623.5316
gpu_tot_sim_cycle = 9461
gpu_tot_sim_insn = 5899232
gpu_tot_ipc =     623.5316
gpu_tot_issued_cta = 488
gpu_occupancy = 80.5335% 
gpu_tot_occupancy = 80.5335% 
max_total_param_size = 0
gpu_stall_dramfull = 33122
gpu_stall_icnt2sh    = 222
partiton_level_parallism =      16.6116
partiton_level_parallism_total  =      16.6116
partiton_level_parallism_util =      17.1518
partiton_level_parallism_util_total  =      17.1518
L2_BW  =     617.7810 GB/Sec
L2_BW_total  =     617.7810 GB/Sec
gpu_total_sim_rate=268146

========= Core cache stats =========
L1I_cache:
	L1I_total_cache_accesses = 0
	L1I_total_cache_misses = 0
	L1I_total_cache_pending_hits = 0
	L1I_total_cache_reservation_fails = 0
L1D_cache:
	L1D_cache_core[0]: Access = 4113, Miss = 2961, Miss_rate = 0.720, Pending_hits = 0, Reservation_fails = 9132
	L1D_cache_core[1]: Access = 3592, Miss = 2560, Miss_rate = 0.713, Pending_hits = 0, Reservation_fails = 11638
	L1D_cache_core[2]: Access = 4940, Miss = 3404, Miss_rate = 0.689, Pending_hits = 0, Reservation_fails = 6487
	L1D_cache_core[3]: Access = 3328, Miss = 2304, Miss_rate = 0.692, Pending_hits = 0, Reservation_fails = 9460
	L1D_cache_core[4]: Access = 3597, Miss = 2553, Miss_rate = 0.710, Pending_hits = 0, Reservation_fails = 9909
	L1D_cache_core[5]: Access = 4921, Miss = 3513, Miss_rate = 0.714, Pending_hits = 0, Reservation_fails = 7917
	L1D_cache_core[6]: Access = 4978, Miss = 3564, Miss_rate = 0.716, Pending_hits = 0, Reservation_fails = 7007
	L1D_cache_core[7]: Access = 4155, Miss = 3072, Miss_rate = 0.739, Pending_hits = 0, Reservation_fails = 9712
	L1D_cache_core[8]: Access = 5120, Miss = 3456, Miss_rate = 0.675, Pending_hits = 0, Reservation_fails = 6914
	L1D_cache_core[9]: Access = 4739, Miss = 3200, Miss_rate = 0.675, Pending_hits = 0, Reservation_fails = 6813
	L1D_cache_core[10]: Access = 4576, Miss = 3072, Miss_rate = 0.671, Pending_hits = 0, Reservation_fails = 6875
	L1D_cache_core[11]: Access = 4864, Miss = 3328, Miss_rate = 0.684, Pending_hits = 0, Reservation_fails = 6136
	L1D_cache_core[12]: Access = 3956, Miss = 2796, Miss_rate = 0.707, Pending_hits = 0, Reservation_fails = 6170
	L1D_cache_core[13]: Access = 4608, Miss = 3072, Miss_rate = 0.667, Pending_hits = 0, Reservation_fails = 5923
	L1D_cache_core[14]: Access = 4453, Miss = 3045, Miss_rate = 0.684, Pending_hits = 0, Reservation_fails = 8217
	L1D_cache_core[15]: Access = 4092, Miss = 2816, Miss_rate = 0.688, Pending_hits = 0, Reservation_fails = 8962
	L1D_cache_core[16]: Access = 3968, Miss = 2816, Miss_rate = 0.710, Pending_hits = 0, Reservation_fails = 7237
	L1D_cache_core[17]: Access = 3792, Miss = 2639, Miss_rate = 0.696, Pending_hits = 0, Reservation_fails = 8992
	L1D_cache_core[18]: Access = 4876, Miss = 3416, Miss_rate = 0.701, Pending_hits = 0, Reservation_fails = 8366
	L1D_cache_core[19]: Access = 4032, Miss = 2816, Miss_rate = 0.698, Pending_hits = 0, Reservation_fails = 9869
	L1D_cache_core[20]: Access = 3968, Miss = 2816, Miss_rate = 0.710, Pending_hits = 0, Reservation_fails = 9644
	L1D_cache_core[21]: Access = 4480, Miss = 3072, Miss_rate = 0.686, Pending_hits = 0, Reservation_fails = 7643
	L1D_cache_core[22]: Access = 3791, Miss = 2611, Miss_rate = 0.689, Pending_hits = 0, Reservation_fails = 10276
	L1D_cache_core[23]: Access = 3880, Miss = 2644, Miss_rate = 0.681, Pending_hits = 0, Reservation_fails = 8575
	L1D_cache_core[24]: Access = 4329, Miss = 2921, Miss_rate = 0.675, Pending_hits = 0, Reservation_fails = 8432
	L1D_cache_core[25]: Access = 4380, Miss = 3072, Miss_rate = 0.701, Pending_hits = 0, Reservation_fails = 8866
	L1D_cache_core[26]: Access = 3584, Miss = 2560, Miss_rate = 0.714, Pending_hits = 0, Reservation_fails = 11441
	L1D_cache_core[27]: Access = 4500, Miss = 3072, Miss_rate = 0.683, Pending_hits = 0, Reservation_fails = 9416
	L1D_cache_core[28]: Access = 4352, Miss = 3072, Miss_rate = 0.706, Pending_hits = 0, Reservation_fails = 9338
	L1D_cache_core[29]: Access = 4175, Miss = 3067, Miss_rate = 0.735, Pending_hits = 0, Reservation_fails = 9465
	L1D_cache_core[30]: Access = 3968, Miss = 2880, Miss_rate = 0.726, Pending_hits = 0, Reservation_fails = 9409
	L1D_cache_core[31]: Access = 4248, Miss = 3072, Miss_rate = 0.723, Pending_hits = 0, Reservation_fails = 8988
	L1D_cache_core[32]: Access = 3584, Miss = 2560, Miss_rate = 0.714, Pending_hits = 0, Reservation_fails = 13512
	L1D_cache_core[33]: Access = 4420, Miss = 3072, Miss_rate = 0.695, Pending_hits = 0, Reservation_fails = 8600
	L1D_cache_core[34]: Access = 4424, Miss = 3148, Miss_rate = 0.712, Pending_hits = 0, Reservation_fails = 9082
	L1D_cache_core[35]: Access = 3584, Miss = 2432, Miss_rate = 0.679, Pending_hits = 0, Reservation_fails = 11472
	L1D_cache_core[36]: Access = 3369, Miss = 2345, Miss_rate = 0.696, Pending_hits = 0, Reservation_fails = 11154
	L1D_cache_core[37]: Access = 4004, Miss = 2787, Miss_rate = 0.696, Pending_hits = 0, Reservation_fails = 8590
	L1D_cache_core[38]: Access = 4193, Miss = 2845, Miss_rate = 0.679, Pending_hits = 0, Reservation_fails = 6808
	L1D_cache_core[39]: Access = 3247, Miss = 2226, Miss_rate = 0.686, Pending_hits = 0, Reservation_fails = 12225
	L1D_total_cache_accesses = 167180
	L1D_total_cache_misses = 116677
	L1D_total_cache_miss_rate = 0.6979
	L1D_total_cache_pending_hits = 0
	L1D_total_cache_reservation_fails = 354672
	L1D_cache_data_port_util = 0.067
	L1D_cache_fill_port_util = 0.135
L1C_cache:
	L1C_total_cache_accesses = 0
	L1C_total_cache_misses = 0
	L1C_total_cache_pending_hits = 0
	L1C_total_cache_reservation_fails = 0
L1T_cache:
	L1T_total_cache_accesses = 0
	L1T_total_cache_misses = 0
	L1T_total_cache_pending_hits = 0
	L1T_total_cache_reservation_fails = 0

Total_core_cache_stats:
	Total_core_cache_stats_breakdown[GLOBAL_ACC_R][HIT] = 640
	Total_core_cache_stats_breakdown[GLOBAL_ACC_R][HIT_RESERVED] = 0
	Total_core_cache_stats_breakdown[GLOBAL_ACC_R][MISS] = 29299
	Total_core_cache_stats_breakdown[GLOBAL_ACC_R][RESERVATION_FAIL] = 336992
	Total_core_cache_stats_breakdown[GLOBAL_ACC_R][SECTOR_MISS] = 87378
	Total_core_cache_stats_breakdown[GLOBAL_ACC_R][MSHR_HIT] = 0
	Total_core_cache_stats_breakdown[LOCAL_ACC_R][HIT] = 0
	Total_core_cache_stats_breakdown[LOCAL_ACC_R][HIT_RESERVED] = 0
	Total_core_cache_stats_breakdown[LOCAL_ACC_R][MISS] = 0
	Total_core_cache_stats_breakdown[LOCAL_ACC_R][RESERVATION_FAIL] = 0
	Total_core_cache_stats_breakdown[LOCAL_ACC_R][SECTOR_MISS] = 0
	Total_core_cache_stats_breakdown[LOCAL_ACC_R][MSHR_HIT] = 0
	Total_core_cache_stats_breakdown[CONST_ACC_R][HIT] = 0
	Total_core_cache_stats_breakdown[CONST_ACC_R][HIT_RESERVED] = 0
	Total_core_cache_stats_breakdown[CONST_ACC_R][MISS] = 0
	Total_core_cache_stats_breakdown[CONST_ACC_R][RESERVATION_FAIL] = 0
	Total_core_cache_stats_breakdown[CONST_ACC_R][SECTOR_MISS] = 0
	Total_core_cache_stats_breakdown[CONST_ACC_R][MSHR_HIT] = 0
	Total_core_cache_stats_breakdown[TEXTURE_ACC_R][HIT] = 0
	Total_core_cache_stats_breakdown[TEXTURE_ACC_R][HIT_RESERVED] = 0
	Total_core_cache_stats_breakdown[TEXTURE_ACC_R][MISS] = 0
	Total_core_cache_stats_breakdown[TEXTURE_ACC_R][RESERVATION_FAIL] = 0
	Total_core_cache_stats_breakdown[TEXTURE_ACC_R][SECTOR_MISS] = 0
	Total_core_cache_stats_breakdown[TEXTURE_ACC_R][MSHR_HIT] = 0
	Total_core_cache_stats_breakdown[GLOBAL_ACC_W][HIT] = 49863
	Total_core_cache_stats_breakdown[GLOBAL_ACC_W][HIT_RESERVED] = 0
	Total_core_cache_stats_breakdown[GLOBAL_ACC_W][MISS] = 0
	Total_core_cache_stats_breakdown[GLOBAL_ACC_W][RESERVATION_FAIL] = 17680
	Total_core_cache_stats_breakdown[GLOBAL_ACC_W][SECTOR_MISS] = 0
	Total_core_cache_stats_breakdown[GLOBAL_ACC_W][MSHR_HIT] = 0
	Total_core_cache_stats_breakdown[LOCAL_ACC_W][HIT] = 0
	Total_core_cache_stats_breakdown[LOCAL_ACC_W][HIT_RESERVED] = 0
	Total_core_cache_stats_breakdown[LOCAL_ACC_W][MISS] = 0
	Total_core_cache_stats_breakdown[LOCAL_ACC_W][RESERVATION_FAIL] = 0
	Total_core_cache_stats_breakdown[LOCAL_ACC_W][SECTOR_MISS] = 0
	Total_core_cache_stats_breakdown[LOCAL_ACC_W][MSHR_HIT] = 0
	Total_core_cache_stats_breakdown[L1_WRBK_ACC][HIT] = 0
	Total_core_cache_stats_breakdown[L1_WRBK_ACC][HIT_RESERVED] = 0
	Total_core_cache_stats_breakdown[L1_WRBK_ACC][MISS] = 0
	Total_core_cache_stats_breakdown[L1_WRBK_ACC][RESERVATION_FAIL] = 0
	Total_core_cache_stats_breakdown[L1_WRBK_ACC][SECTOR_MISS] = 0
	Total_core_cache_stats_breakdown[L1_WRBK_ACC][MSHR_HIT] = 0
	Total_core_cache_stats_breakdown[L2_WRBK_ACC][HIT] = 0
	Total_core_cache_stats_breakdown[L2_WRBK_ACC][HIT_RESERVED] = 0
	Total_core_cache_stats_breakdown[L2_WRBK_ACC][MISS] = 0
	Total_core_cache_stats_breakdown[L2_WRBK_ACC][RESERVATION_FAIL] = 0
	Total_core_cache_stats_breakdown[L2_WRBK_ACC][SECTOR_MISS] = 0
	Total_core_cache_stats_breakdown[L2_WRBK_ACC][MSHR_HIT] = 0
	Total_core_cache_stats_breakdown[INST_ACC_R][HIT] = 0
	Total_core_cache_stats_breakdown[INST_ACC_R][HIT_RESERVED] = 0
	Total_core_cache_stats_breakdown[INST_ACC_R][MISS] = 0
	Total_core_cache_stats_breakdown[INST_ACC_R][RESERVATION_FAIL] = 0
	Total_core_cache_stats_breakdown[INST_ACC_R][SECTOR_MISS] = 0
	Total_core_cache_stats_breakdown[INST_ACC_R][MSHR_HIT] = 0
	Total_core_cache_stats_breakdown[L1_WR_ALLOC_R][HIT] = 0
	Total_core_cache_stats_breakdown[L1_WR_ALLOC_R][HIT_RESERVED] = 0
	Total_core_cache_stats_breakdown[L1_WR_ALLOC_R][MISS] = 0
	Total_core_cache_stats_breakdown[L1_WR_ALLOC_R][RESERVATION_FAIL] = 0
	Total_core_cache_stats_breakdown[L1_WR_ALLOC_R][SECTOR_MISS] = 0
	Total_core_cache_stats_breakdown[L1_WR_ALLOC_R][MSHR_HIT] = 0
	Total_core_cache_stats_breakdown[L2_WR_ALLOC_R][HIT] = 0
	Total_core_cache_stats_breakdown[L2_WR_ALLOC_R][HIT_RESERVED] = 0
	Total_core_cache_stats_breakdown[L2_WR_ALLOC_R][MISS] = 0
	Total_core_cache_stats_breakdown[L2_WR_ALLOC_R][RESERVATION_FAIL] = 0
	Total_core_cache_stats_breakdown[L2_WR_ALLOC_R][SECTOR_MISS] = 0
	Total_core_cache_stats_breakdown[L2_WR_ALLOC_R][MSHR_HIT] = 0
	Total_core_cache_stats_breakdown[GLOBAL_ACC_R][TOTAL_ACCESS] = 117317
	Total_core_cache_stats_breakdown[GLOBAL_ACC_W][TOTAL_ACCESS] = 49863

Total_core_cache_fail_stats:
	Total_core_cache_fail_stats_breakdown[GLOBAL_ACC_R][MISS_QUEUE_FULL] = 336992
	Total_core_cache_fail_stats_breakdown[GLOBAL_ACC_W][MISS_QUEUE_FULL] = 17680
ctas_completed 328, Shader 0 warp_id issue ditsribution:
warp_id:
0, 1, 2, 3, 4, 5, 6, 7, 8, 9, 10, 11, 12, 13, 14, 15, 16, 17, 18, 19, 20, 21, 22, 23, 24, 25, 26, 27, 28, 29, 30, 31, 32, 33, 34, 35, 36, 37, 38, 39, 40, 41, 42, 43, 44, 45, 46, 47, 48, 49, 50, 51, 52, 53, 54, 55, 56, 57, 58, 59, 60, 61, 62, 63, 
distro:
42, 42, 42, 42, 42, 42, 42, 42, 42, 42, 42, 42, 42, 42, 42, 42, 42, 42, 42, 42, 42, 42, 42, 42, 42, 42, 42, 42, 42, 42, 42, 42, 42, 42, 42, 42, 42, 42, 42, 42, 42, 42, 42, 42, 42, 42, 42, 42, 42, 42, 42, 42, 42, 42, 42, 42, 41, 42, 42, 41, 41, 41, 41, 41, 
gpgpu_n_tot_thrd_icount = 6876704
gpgpu_n_tot_w_icount = 214897
gpgpu_n_stall_shd_mem = 131354
gpgpu_n_mem_read_local = 0
gpgpu_n_mem_write_local = 0
gpgpu_n_mem_read_global = 116336
gpgpu_n_mem_write_global = 49807
gpgpu_n_mem_texture = 0
gpgpu_n_mem_const = 0
gpgpu_n_load_insn  = 946048
gpgpu_n_store_insn = 400224
gpgpu_n_shmem_insn = 0
gpgpu_n_sstarr_insn = 0
gpgpu_n_tex_insn = 0
gpgpu_n_const_mem_insn = 0
gpgpu_n_param_mem_insn = 0
gpgpu_n_shmem_bkconflict = 0
gpgpu_n_cache_bkconflict = 0
gpgpu_n_intrawarp_mshr_merge = 0
gpgpu_n_cmem_portconflict = 0
gpgpu_stall_shd_mem[c_mem][resource_stall] = 0
gpgpu_stall_shd_mem[s_mem][bk_conf] = 0
gpgpu_stall_shd_mem[gl_mem][resource_stall] = 131354
gpgpu_stall_shd_mem[gl_mem][coal_stall] = 0
gpgpu_stall_shd_mem[gl_mem][data_port_stall] = 0
gpu_reg_bank_conflict_stalls = 0
Warp Occupancy Distribution:
Stall:552962	W0_Idle:326663	W0_Scoreboard:1958415	W1:0	W2:0	W3:0	W4:0	W5:0	W6:0	W7:0	W8:0	W9:0	W10:0	W11:0	W12:0	W13:0	W14:0	W15:0	W16:0	W17:0	W18:0	W19:0	W20:0	W21:0	W22:0	W23:0	W24:0	W25:0	W26:0	W27:0	W28:0	W29:0	W30:0	W31:0	W32:189000
single_issue_nums: WS0:54899	WS1:54920	WS2:54912	WS3:54870	
dual_issue_nums: WS0:0	WS1:0	WS2:0	WS3:0	
traffic_breakdown_coretomem[GLOBAL_ACC_R] = 930688 {8:116336,}
traffic_breakdown_coretomem[GLOBAL_ACC_W] = 1992280 {40:49807,}
traffic_breakdown_memtocore[GLOBAL_ACC_R] = 4077520 {40:101938,}
traffic_breakdown_memtocore[GLOBAL_ACC_W] = 369552 {8:46194,}
maxmflatency = 3893 
max_icnt2mem_latency = 3061 
maxmrqlatency = 827 
max_icnt2sh_latency = 1065 
averagemflatency = 1173 
avg_icnt2mem_latency = 742 
avg_mrq_latency = 33 
avg_icnt2sh_latency = 154 
mrq_lat_table:16933 	15265 	7635 	8558 	9728 	12705 	11808 	3923 	705 	60 	0 	0 	0 	0 	0 	0 	0 	0 	0 	0 	0 	0 	0 	0 	0 	0 	0 	0 	0 	0 	0 	0 	
dq_lat_table:0 	0 	0 	0 	0 	0 	0 	0 	0 	0 	0 	0 	0 	0 	0 	0 	0 	0 	0 	0 	0 	0 	0 	0 	0 	0 	0 	0 	0 	0 	0 	0 	
mf_lat_table:0 	0 	0 	0 	0 	0 	0 	4308 	20138 	50236 	57399 	16035 	0 	0 	0 	0 	0 	0 	0 	0 	0 	0 	0 	0 	0 	0 	0 	0 	0 	0 	0 	0 	
icnt2mem_lat_table:0 	0 	0 	0 	6796 	7255 	12726 	21820 	28895 	42915 	32124 	4631 	0 	0 	0 	0 	0 	0 	0 	0 	0 	0 	0 	0 	
icnt2sh_lat_table:0 	28534 	9271 	7312 	8165 	12362 	18316 	30587 	28338 	5208 	23 	0 	0 	0 	0 	0 	0 	0 	0 	0 	0 	0 	0 	0 	
mf_lat_pw_table:0 	0 	0 	0 	0 	0 	0 	0 	1 	4 	12 	0 	0 	0 	0 	0 	0 	0 	0 	0 	0 	0 	0 	0 	0 	0 	0 	0 	0 	0 	0 	0 	
maximum concurrent accesses to same row:
dram[0]:        96        69        96        96        70        71        86        74        78        82        88        45        67        39        96        96 
dram[1]:        96        82        96        96        78        36        83        73        70        77        88        59        56        42        96        88 
dram[2]:        70        87        96        96        85        47        95        75        65        79        90        62        44        37        96        96 
dram[3]:        90        74        96        96        80        49        90        74        77        76        88        57        63        35        96        92 
dram[4]:        96        93        96        96        84        44        88        78        78        78        93        64        43        49        96        95 
dram[5]:        96        68        96        96        72        50        88        74        74        78        91        68        69        53        96        95 
dram[6]:        96        94        96        96        66        48        87        64        72        76        94        64        54        51        96        95 
dram[7]:        96        89        96        96        85        46        88        84        75        85        96        53        43        51        96        96 
dram[8]:        32        32        64        64        64        64        32        38        64        64        62        64        45        43        43        41 
dram[9]:        32        32        64        64        64        64        32        40        63        60        62        64        61        25        38        21 
dram[10]:        32        32        64        64        64        64        32        46        63        60        62        64        59        30        37        24 
dram[11]:        32        32        64        64        64        64        32        36        64        64        60        64        52        35        39        34 
dram[12]:        32        32        64        64        64        64        32        42        64        60        64        64        32        33        54        32 
dram[13]:        32        32        64        64        64        64        32        30        64        64        64        64        32        31        52        25 
dram[14]:        32        32        64        64        64        64        32        30        64        64        64        64        31        28        51        20 
dram[15]:        32        32        64        64        64        64        32        32        64        60        64        64        49        34        51        22 
dram[16]:        64        60        32        32        28        32        45        56        64        41        43        35        42        39        17        21 
dram[17]:        64        62        32        32        29        32        49        56        64        64        40        33        42        39        19        31 
dram[18]:        64        56        32        32        27        32        50        58        64        64        49        32        51        38        40        26 
dram[19]:        64        56        32        32        28        32        48        54        64        48        45        32        54        36        18        21 
dram[20]:        64        64        32        32        28        30        53        56        64        64        32        32        52        40        20        14 
dram[21]:        64        64        32        32        32        30        52        52        64        30        32        32        48        39        30        24 
dram[22]:        64        64        32        32        32        30        51        56        64        37        44        32        54        41        18        29 
dram[23]:        64        64        32        32        32        32        55        57        64        64        32        44        50        36        19        26 
maximum service time to same row:
dram[0]:      4124      3871      4812      5048      2382      2280      1136       816      1865      2614      1739      1430      1702      1955      2117      2171 
dram[1]:      4131      4026      4918      5083      1337      2564      1032      1176      2434      1753      1704      1451      1675      1603      2124      2125 
dram[2]:      3622      3738      4762      2833      1431      2839      1345       905      2324      1869      2060      1774      1702      1406      2071      2251 
dram[3]:      4038      3974      4796      5064      1459      1736      1229       830      1968      2594      1719      1684      1696      1510      2113      2074 
dram[4]:      4118      4303      4760      4981      1214      2594       677       824      2225      2146      1919      1540      1538      1509      2073      2180 
dram[5]:      4215      3994      4776      4938      2351      1317      1140       788      1920      2087      1817      1464      1602      1621      2138      2153 
dram[6]:      4183      4193      4764      5061      1259      2752      1022       830      1891      2056      1821      1525      1584      1766      2259      2396 
dram[7]:      4227      4267      4738      5000      2238      2928       994      1090      2199      2324      1831      1420      1557      1647      2185      2219 
dram[8]:      4164      3951      2060      5897      4450      4348      2906      2696      2992      3493      3528      2720      3496      4060      2969      3924 
dram[9]:      4131      3949      2105      5866      4433      4334      3337      2902      3032      2842      3458      4146      3592      3322      3165      3864 
dram[10]:      4126      3955      2255      6003      4452      4405      3221      2880      3010      2732      3557      4182      3598      3190      3197      3869 
dram[11]:      4159      3946      2256      2057      4461      4404      2929      2703      3105      3775      3345      2610      3670      3435      3037      3350 
dram[12]:      4199      3946      2422      2306      4351      4379      3330      3303      2821      2904      3210      4060      3162      3570      3008      3706 
dram[13]:      4239      3902      2328      2311      4430      4404      2990      2763      2832      3696      3411      2407      3230      3227      3038      3544 
dram[14]:      4142      3887      2427      2347      4400      4397      3168      2870      2815      3642      3307      2531      3255      3389      2891      3511 
dram[15]:      4187      3979      2420      2334      4289      4330      3329      3170      2950      3439      3562      4151      3432      3876      2872      3817 
dram[16]:      4119      4087      3343      4837      2513      3312      2729      3746      4224      2647      3436      3364      3010      3207      3958      4344 
dram[17]:      4098      4177      3527      4827      3725      4185      2893      2986      4049      4015      2391      2910      2903      3070      4025      3992 
dram[18]:      4097      4058      3617      2969      3666      4241      2946      3234      4358      4149      2335      2953      2980      3343      4151      3885 
dram[19]:      4172      4064      3538      4840      3068      3172      2846      3624      4380      3567      3042      3108      2831      3029      4005      4312 
dram[20]:      4085      4302      3498      4919      3836      4222      3115      2892      3856      3863      2493      2622      2839      3067      3721      3820 
dram[21]:      4122      4174      3482      4918      3481      4324      3108      3833      4115      3049      2723      3269      2994      2887      3877      4249 
dram[22]:      4046      4301      3514      4912      2289      4318      3155      3708      3871      3293      2818      2934      2760      3037      3923      3955 
dram[23]:      4112      4299      3434      3130      4020      4306      2892      3282      3816      3892      2451      2765      3002      2935      3937      3888 
average row accesses per activate:
dram[0]: 34.625000 17.687500 70.333336 64.666664 11.076923 10.600000  8.898305 10.340425  8.600000  9.764706 10.418605 10.232558 18.000000 12.521739 11.384615 14.095238 
dram[1]: 34.250000 22.666666 53.750000 64.666664  9.777778  9.021276  8.258064 13.459459 10.352942 10.060606  9.955556 10.000000 13.714286 16.000000 15.000000 10.962963 
dram[2]: 17.187500 27.200001 71.333336 96.000000 11.368421 10.871795 10.918367 15.750000 11.354838 11.066667 12.800000 11.891891 15.157895 13.090909 15.000000 15.789474 
dram[3]: 17.000000 19.785715 44.200001 64.333336  8.800000 10.190476  9.350877 12.871795 10.352942 10.838710  9.955556  9.166667 20.571428 12.000000 13.636364 12.666667 
dram[4]: 19.357143 13.500000 55.000000 67.333336  9.061225  9.083333  8.965517 10.080000 12.428572 10.303030 10.926829 10.139535 14.400000 24.000000 11.680000 17.411764 
dram[5]: 19.714285 19.928572 57.000000 66.666664 10.181818 10.341463 10.571428 11.651163 11.354838  9.714286  9.955556 11.000000 16.000000 19.200001 12.333333 18.500000 
dram[6]: 14.944445 23.416666 55.500000 64.666664  9.166667 10.974359  9.120689 10.200000  9.555555  9.222222 10.418605 10.232558 16.000000 19.200001 12.695652 15.789474 
dram[7]: 19.500000 13.500000 54.000000 65.666664 10.476191 12.848485  8.177420 12.868421 12.444445 12.142858 10.181818 11.282051 14.400000 19.200001 14.800000 17.411764 
dram[8]: 20.000000 31.500000 64.000000 45.000000 12.444445 28.000000  8.913043  8.296296 46.000000 44.000000 12.000000 17.454546 18.285715 25.600000 17.777779 14.545455 
dram[9]: 28.500000 15.125000 64.000000 44.333332 14.000000 18.666666 11.777778  8.296296 30.666666 35.200001 10.666667 24.000000 18.285715 11.636364 17.777779 13.333333 
dram[10]: 32.000000 20.500000 64.000000 44.666668 14.000000 22.400000 11.444445  8.960000 30.666666 25.142857 11.294118 24.000000 18.285715 12.800000 17.777779 13.333333 
dram[11]: 14.500000 31.250000 64.000000 64.000000 16.000000 22.400000  8.956522  9.333333 46.000000 17.600000 10.666667 27.428572 25.600000 25.600000 17.777779  9.411765 
dram[12]: 29.500000 31.500000 64.000000 64.000000 18.666666 22.400000 11.277778 11.789474 46.000000 16.000000 12.800000 19.200001  9.846154  9.846154 20.000000 11.428572 
dram[13]: 12.000000 31.250000 64.000000 64.000000 22.400000 28.000000  8.695652  8.000000 46.000000 44.000000 12.800000 13.714286  9.846154 11.636364 26.666666 13.333333 
dram[14]: 15.625000 31.250000 64.000000 64.000000 14.000000 22.400000  9.000000 10.000000 46.000000 44.000000 19.200001 16.000000 14.222222  8.533334 16.000000 11.428572 
dram[15]: 29.500000 12.200000 64.000000 64.000000 16.000000 14.000000 11.277778 11.789474 46.000000 16.000000 12.800000 24.000000 18.285715 14.222222 16.000000 11.428572 
dram[16]: 30.666666 32.000000 32.000000 22.000000  8.761905 13.538462  8.482759 17.066668 19.000000 18.000000 24.000000 13.714286 13.333333 10.666667  9.846154 10.666667 
dram[17]: 18.500000 24.500000 32.000000 22.000000  9.684211 11.000000  8.962963 12.800000 15.200000 36.000000 12.000000 13.714286 11.428572 13.333333  9.142858 12.800000 
dram[18]: 30.833334 16.333334 32.000000 32.000000  8.363636 12.571428  9.760000 17.066668 10.857142 18.000000 16.000000 12.000000 13.333333 16.000000 11.636364  9.142858 
dram[19]: 22.750000 24.500000 32.000000 23.000000  8.363636  9.263158  9.760000 23.272728 12.666667 24.000000 19.200001 10.666667 16.000000 12.307693  9.846154 10.666667 
dram[20]: 46.500000 33.000000 32.000000 22.666666 10.823529  9.777778 12.736842 13.473684 10.857142 36.000000 16.000000 11.294118 20.000000 11.428572  9.142858  7.111111 
dram[21]: 23.250000 24.500000 32.000000 22.333334 23.000000 17.600000 11.523809 17.000000 10.857142 18.000000 19.200001 12.000000 26.666666 10.000000 10.666667 10.666667 
dram[22]: 18.600000 49.000000 32.000000 22.000000 10.222222 11.000000 11.476191 19.230770  9.500000 14.400000 24.000000 12.000000 20.000000 17.777779 10.666667  8.000000 
dram[23]: 46.250000 32.666668 32.000000 32.000000 20.444445 11.000000  9.600000 14.941176 10.857142 36.000000 13.714286 17.454546 16.000000 11.428572 10.666667  7.111111 
average row locality = 87320/6371 = 13.705854
number of total memory accesses made:
dram[0]:         0         0         0         0         0         0         0         0         0         0         0         0         0         0         0         0 
dram[1]:         0         0         0         0         0         0         0         0         0         0         0         0         0         0         0         0 
dram[2]:         0         0         0         0         0         0         0         0         0         0         0         0         0         0         0         0 
dram[3]:         0         0         0         0         0         0         0         0         0         0         0         0         0         0         0         0 
dram[4]:         0         0         0         0         0         0         0         0         0         0         0         0         0         0         0         0 
dram[5]:         0         0         0         0         0         0         0         0         0         0         0         0         0         0         0         0 
dram[6]:         0         0         0         0         0         0         0         0         0         0         0         0         0         0         0         0 
dram[7]:         0         0         0         0         0         0         0         0         0         0         0         0         0         0         0         0 
dram[8]:         0         0         0         0         0         0         0         0         0         0         0         0         0         0         0         0 
dram[9]:         0         0         0         0         0         0         0         0         0         0         0         0         0         0         0         0 
dram[10]:         0         0         0         0         0         0         0         0         0         0         0         0         0         0         0         0 
dram[11]:         0         0         0         0         0         0         0         0         0         0         0         0         0         0         0         0 
dram[12]:         0         0         0         0         0         0         0         0         0         0         0         0         0         0         0         0 
dram[13]:         0         0         0         0         0         0         0         0         0         0         0         0         0         0         0         0 
dram[14]:         0         0         0         0         0         0         0         0         0         0         0         0         0         0         0         0 
dram[15]:         0         0         0         0         0         0         0         0         0         0         0         0         0         0         0         0 
dram[16]:         0         0         0         0         0         0         0         0         0         0         0         0         0         0         0         0 
dram[17]:         0         0         0         0         0         0         0         0         0         0         0         0         0         0         0         0 
dram[18]:         0         0         0         0         0         0         0         0         0         0         0         0         0         0         0         0 
dram[19]:         0         0         0         0         0         0         0         0         0         0         0         0         0         0         0         0 
dram[20]:         0         0         0         0         0         0         0         0         0         0         0         0         0         0         0         0 
dram[21]:         0         0         0         0         0         0         0         0         0         0         0         0         0         0         0         0 
dram[22]:         0         0         0         0         0         0         0         0         0         0         0         0         0         0         0         0 
dram[23]:         0         0         0         0         0         0         0         0         0         0         0         0         0         0         0         0 
total accesses: 0
min_bank_accesses = 0!
min_chip_accesses = 0!
number of total read accesses:
dram[0]:       307       290       288       288       340       336       412       432       404       416       407       418       326       315       296       296 
dram[1]:       310       291       288       288       335       344       420       424       404       424       407       423       322       304       300       300 
dram[2]:       310       288       288       288       331       336       424       436       404       424       416       424       323       304       300       300 
dram[3]:       314       289       288       288       339       344       424       436       408       424       414       422       321       309       308       300 
dram[4]:       311       298       288       288       340       348       432       428       412       420       408       417       319       302       304       292 
dram[5]:       315       296       288       288       331       352       424       428       412       424       410       422       324       313       305       296 
dram[6]:       315       290       288       288       340       344       432       440       404       416       405       422       317       313       305       292 
dram[7]:       308       293       288       288       336       344       416       420       412       408       404       417       321       303       303       296 
dram[8]:       160       160       128       128       128       128       224       224       224       224       165       176       120       126       192       199 
dram[9]:       160       160       128       128       128       128       224       224       224       224       172       176       114       121       192       198 
dram[10]:       160       160       128       128       128       128       224       224       224       224       166       176       128       124       192       198 
dram[11]:       160       160       128       128       128       128       224       224       224       224       166       176       116       125       192       192 
dram[12]:       160       160       128       128       128       128       224       224       224       224       163       176       119       126       192       192 
dram[13]:       160       160       128       128       128       128       224       224       224       224       160       176       120       125       192       192 
dram[14]:       160       160       128       128       128       128       224       224       224       224       167       172       125       126       192       192 
dram[15]:       160       160       128       128       128       128       224       224       224       224       163       176       118       122       192       192 
dram[16]:       128       128       160       160       176       184       160       160       160       160       214       216       208       216        96        98 
dram[17]:       128       128       160       160       176       184       160       160       160       160       210       216       209       220        96        98 
dram[18]:       128       128       160       160       176       184       160       160       160       160       212       216       209       221        96        96 
dram[19]:       128       128       160       160       176       184       160       160       160       160       212       216       206       220        96       101 
dram[20]:       128       128       160       160       176       184       160       160       160       160       210       216       210       222        96       101 
dram[21]:       128       128       160       160       176       184       160       160       160       160       210       216       210       220        96       101 
dram[22]:       128       128       160       160       176       184       160       160       160       160       209       210       210       221        96        98 
dram[23]:       128       128       160       160       176       184       160       160       160       160       208       214       209       220        96        96 
total dram reads = 87379
bank skew: 440/96 = 4.58
chip skew: 5628/2619 = 2.15
number of total write accesses:
dram[0]:        64        56         8         8         8         0         0         0         0         0         8         4        36        28        64        64 
dram[1]:        60        64         4         8         4         4         0         0         0         0         8         8        28        40        64        60 
dram[2]:        64        60         0         8         0         8         0         0         0         0         4        12        28        44        60        64 
dram[3]:        64        64         0         4         8         0         0         0         0         0         8         4        36        40        64        64 
dram[4]:        64        60         4        16         8         4         0         0         0         0         8        12        28        40        64        64 
dram[5]:        64        64        12         4         4         0         0         0         0         0         8        12        36        32        64        64 
dram[6]:        60        60        12         8         4         0         0         0         0         0         8        12        36        24        64        64 
dram[7]:        64        56         0        16         8         0         0         0         0         0         8         8        28        36        64        64 
dram[8]:         0         0         0         0         0         0         0         0         0         0         0         0         0         0         0         0 
dram[9]:         0         0         0         0         0         0         0         0         0         0         0         0         0         0         0         0 
dram[10]:         0         0         0         0         0         0         0         0         0         0         0         0         0         0         0         0 
dram[11]:         0         0         0         0         0         0         0         0         0         0         0         0         0         0         0         0 
dram[12]:         0         0         0         0         0         0         0         0         0         0         0         0         0         0         0         0 
dram[13]:         0         0         0         0         0         0         0         0         0         0         0         0         0         0         0         0 
dram[14]:         0         0         0         0         0         0         0         0         0         0         0         0         0         0         0         0 
dram[15]:         0         0         0         0         0         0         0         0         0         0         0         0         0         0         0         0 
dram[16]:         0         0         0         0         0         0         0         0         0         0         0         0         0         0         0         0 
dram[17]:         0         0         0         0         0         0         0         0         0         0         0         0         0         0         0         0 
dram[18]:         0         0         0         0         0         0         0         0         0         0         0         0         0         0         0         0 
dram[19]:         0         0         0         0         0         0         0         0         0         0         0         0         0         0         0         0 
dram[20]:         0         0         0         0         0         0         0         0         0         0         0         0         0         0         0         0 
dram[21]:         0         0         0         0         0         0         0         0         0         0         0         0         0         0         0         0 
dram[22]:         0         0         0         0         0         0         0         0         0         0         0         0         0         0         0         0 
dram[23]:         0         0         0         0         0         0         0         0         0         0         0         0         0         0         0         0 
total dram writes = 2848
min_bank_accesses = 0!
min_chip_accesses = 0!
average mf latency per bank:
dram[0]:       2344      2432      2784      2737      2008      2062      2035      2083      1846      2057      1747      1954      2333      2706      2471      2588
[...]
Memory Partition 19: 
Cache L2_bank_038:
MSHR contents

Cache L2_bank_039:
MSHR contents

In Dram Latency Queue (total = 0): 
DRAM[19]: 16 bks, busW=16 BL=2 CL=12, tRRD=3 tCCD=1, tRCD=12 tRAS=28 tRP=12 tRC=40
n_cmd=15895 n_nop=11602 n_act=221 n_pre=205 n_ref_event=0 n_req=4104 n_rd=4104 n_rd_L2_A=0 n_write=0 n_wr_bk=0 bw_util=0.2582
n_activity=8744 dram_eff=0.4694
bk0: 232a 15438i bk1: 232a 15494i bk2: 192a 15513i bk3: 192a 15512i bk4: 272a 14874i bk5: 256a 15020i bk6: 352a 14599i bk7: 352a 15028i bk8: 248a 15300i bk9: 240a 15481i bk10: 288a 15174i bk11: 288a 14758i bk12: 256a 15317i bk13: 256a 15232i bk14: 224a 15214i bk15: 224a 15146i 

------------------------------------------------------------------------

Row_Buffer_Locality = 0.946150
Row_Buffer_Locality_read = 0.946150
Row_Buffer_Locality_write = -nan
Bank_Level_Parallism = 2.633895
Bank_Level_Parallism_Col = 2.179275
Bank_Level_Parallism_Ready = 1.626949
write_to_read_ratio_blp_rw_average = 0.000000
GrpLevelPara = 1.781866 

BW Util details:
bwutil = 0.258194 
total_CMD = 15895 
util_bw = 4104 
Wasted_Col = 1263 
Wasted_Row = 451 
Idle = 10077 

BW Util Bottlenecks: 
RCDc_limit = 1052 
RCDWRc_limit = 0 
WTRc_limit = 0 
RTWc_limit = 0 
CCDLc_limit = 809 
rwq = 0 
CCDLc_limit_alone = 809 
WTRc_limit_alone = 0 
RTWc_limit_alone = 0 

Commands details: 
total_CMD = 15895 
n_nop = 11602 
Read = 4104 
Write = 0 
L2_Alloc = 0 
L2_WB = 0 
n_act = 221 
n_pre = 205 
n_ref = 0 
n_req = 4104 
total_req = 4104 

Dual Bus Interface Util: 
issued_total_row = 426 
issued_total_col = 4104 
Row_Bus_Util =  0.026801 
CoL_Bus_Util = 0.258194 
Either_Row_CoL_Bus_Util = 0.270085 
Issued_on_Two_Bus_Simul_Util = 0.014910 
issued_two_Eff = 0.055206 
queue_avg = 2.459453 


dram_util_bins: 0 0 0 0 0 0 0 0 0 0
dram_eff_bins: 0 0 0 0 0 0 0 0 0 0
mrqq: max=33 avg=2.45945
Memory Partition 20: 
Cache L2_bank_040:
MSHR contents

Cache L2_bank_041:
MSHR contents

In Dram Latency Queue (total = 0): 
DRAM[20]: 16 bks, busW=16 BL=2 CL=12, tRRD=3 tCCD=1, tRCD=12 tRAS=28 tRP=12 tRC=40
n_cmd=15895 n_nop=11595 n_act=218 n_pre=202 n_ref_event=0 n_req=4104 n_rd=4104 n_rd_L2_A=0 n_write=0 n_wr_bk=0 bw_util=0.2582
n_activity=8763 dram_eff=0.4683
bk0: 232a 15524i bk1: 232a 15565i bk2: 192a 15579i bk3: 192a 15622i bk4: 272a 14990i bk5: 256a 15024i bk6: 352a 14816i bk7: 352a 14784i bk8: 248a 15233i bk9: 240a 15540i bk10: 288a 15086i bk11: 288a 14894i bk12: 256a 15249i bk13: 256a 15200i bk14: 224a 15128i bk15: 224a 14915i 

------------------------------------------------------------------------

Row_Buffer_Locality = 0.946881
Row_Buffer_Locality_read = 0.946881
Row_Buffer_Locality_write = -nan
Bank_Level_Parallism = 2.577189
Bank_Level_Parallism_Col = 2.157276
Bank_Level_Parallism_Ready = 1.651316
write_to_read_ratio_blp_rw_average = 0.000000
GrpLevelPara = 1.776306 

BW Util details:
bwutil = 0.258194 
total_CMD = 15895 
util_bw = 4104 
Wasted_Col = 1302 
Wasted_Row = 521 
Idle = 9968 

BW Util Bottlenecks: 
RCDc_limit = 1117 
RCDWRc_limit = 0 
WTRc_limit = 0 
RTWc_limit = 0 
CCDLc_limit = 777 
rwq = 0 
CCDLc_limit_alone = 777 
WTRc_limit_alone = 0 
RTWc_limit_alone = 0 

Commands details: 
total_CMD = 15895 
n_nop = 11595 
Read = 4104 
Write = 0 
L2_Alloc = 0 
L2_WB = 0 
n_act = 218 
n_pre = 202 
n_ref = 0 
n_req = 4104 
total_req = 4104 

Dual Bus Interface Util: 
issued_total_row = 420 
issued_total_col = 4104 
Row_Bus_Util =  0.026423 
CoL_Bus_Util = 0.258194 
Either_Row_CoL_Bus_Util = 0.270525 
Issued_on_Two_Bus_Simul_Util = 0.014092 
issued_two_Eff = 0.052093 
queue_avg = 2.258949 


dram_util_bins: 0 0 0 0 0 0 0 0 0 0
dram_eff_bins: 0 0 0 0 0 0 0 0 0 0
mrqq: max=30 avg=2.25895
Memory Partition 21: 
Cache L2_bank_042:
MSHR contents

Cache L2_bank_043:
MSHR contents

In Dram Latency Queue (total = 0): 
DRAM[21]: 16 bks, busW=16 BL=2 CL=12, tRRD=3 tCCD=1, tRCD=12 tRAS=28 tRP=12 tRC=40
n_cmd=15895 n_nop=11633 n_act=198 n_pre=182 n_ref_event=0 n_req=4104 n_rd=4104 n_rd_L2_A=0 n_write=0 n_wr_bk=0 bw_util=0.2582
n_activity=8690 dram_eff=0.4723
bk0: 232a 15355i bk1: 232a 15451i bk2: 192a 15585i bk3: 192a 15600i bk4: 272a 15391i bk5: 256a 15319i bk6: 352a 14892i bk7: 352a 15007i bk8: 248a 15284i bk9: 240a 15429i bk10: 288a 15294i bk11: 288a 14947i bk12: 256a 15378i bk13: 256a 15129i bk14: 224a 15322i bk15: 224a 15170i 

------------------------------------------------------------------------

Row_Buffer_Locality = 0.951754
Row_Buffer_Locality_read = 0.951754
Row_Buffer_Locality_write = -nan
Bank_Level_Parallism = 2.409833
Bank_Level_Parallism_Col = 2.035891
Bank_Level_Parallism_Ready = 1.517057
write_to_read_ratio_blp_rw_average = 0.000000
GrpLevelPara = 1.709647 

BW Util details:
bwutil = 0.258194 
total_CMD = 15895 
util_bw = 4104 
Wasted_Col = 1200 
Wasted_Row = 452 
Idle = 10139 

BW Util Bottlenecks: 
RCDc_limit = 921 
RCDWRc_limit = 0 
WTRc_limit = 0 
RTWc_limit = 0 
CCDLc_limit = 813 
rwq = 0 
CCDLc_limit_alone = 813 
WTRc_limit_alone = 0 
RTWc_limit_alone = 0 

Commands details: 
total_CMD = 15895 
n_nop = 11633 
Read = 4104 
Write = 0 
L2_Alloc = 0 
L2_WB = 0 
n_act = 198 
n_pre = 182 
n_ref = 0 
n_req = 4104 
total_req = 4104 

Dual Bus Interface Util: 
issued_total_row = 380 
issued_total_col = 4104 
Row_Bus_Util =  0.023907 
CoL_Bus_Util = 0.258194 
Either_Row_CoL_Bus_Util = 0.268135 
Issued_on_Two_Bus_Simul_Util = 0.013967 
issued_two_Eff = 0.052088 
queue_avg = 2.152249 


dram_util_bins: 0 0 0 0 0 0 0 0 0 0
dram_eff_bins: 0 0 0 0 0 0 0 0 0 0
mrqq: max=33 avg=2.15225
Memory Partition 22: 
Cache L2_bank_044:
MSHR contents

Cache L2_bank_045:
MSHR contents

In Dram Latency Queue (total = 0): 
DRAM[22]: 16 bks, busW=16 BL=2 CL=12, tRRD=3 tCCD=1, tRCD=12 tRAS=28 tRP=12 tRC=40
n_cmd=15895 n_nop=11618 n_act=211 n_pre=195 n_ref_event=0 n_req=4104 n_rd=4104 n_rd_L2_A=0 n_write=0 n_wr_bk=0 bw_util=0.2582
n_activity=8748 dram_eff=0.4691
bk0: 232a 15280i bk1: 232a 15609i bk2: 192a 15592i bk3: 192a 15615i bk4: 272a 14904i bk5: 256a 15013i bk6: 352a 14673i bk7: 352a 15013i bk8: 248a 15192i bk9: 240a 15336i bk10: 288a 15182i bk11: 288a 14895i bk12: 256a 15356i bk13: 256a 15422i bk14: 224a 15264i bk15: 224a 14900i 

------------------------------------------------------------------------

Row_Buffer_Locality = 0.948587
Row_Buffer_Locality_read = 0.948587
Row_Buffer_Locality_write = -nan
Bank_Level_Parallism = 2.628680
Bank_Level_Parallism_Col = 2.179468
Bank_Level_Parallism_Ready = 1.655702
write_to_read_ratio_blp_rw_average = 0.000000
GrpLevelPara = 1.769015 

BW Util details:
bwutil = 0.258194 
total_CMD = 15895 
util_bw = 4104 
Wasted_Col = 1271 
Wasted_Row = 399 
Idle = 10121 

BW Util Bottlenecks: 
RCDc_limit = 986 
RCDWRc_limit = 0 
WTRc_limit = 0 
RTWc_limit = 0 
CCDLc_limit = 825 
rwq = 0 
CCDLc_limit_alone = 825 
WTRc_limit_alone = 0 
RTWc_limit_alone = 0 

Commands details: 
total_CMD = 15895 
n_nop = 11618 
Read = 4104 
Write = 0 
L2_Alloc = 0 
L2_WB = 0 
n_act = 211 
n_pre = 195 
n_ref = 0 
n_req = 4104 
total_req = 4104 

Dual Bus Interface Util: 
issued_total_row = 406 
issued_total_col = 4104 
Row_Bus_Util =  0.025543 
CoL_Bus_Util = 0.258194 
Either_Row_CoL_Bus_Util = 0.269078 
Issued_on_Two_Bus_Simul_Util = 0.014659 
issued_two_Eff = 0.054477 
queue_avg = 2.600944 


dram_util_bins: 0 0 0 0 0 0 0 0 0 0
dram_eff_bins: 0 0 0 0 0 0 0 0 0 0
mrqq: max=30 avg=2.60094
Memory Partition 23: 
Cache L2_bank_046:
MSHR contents

Cache L2_bank_047:
MSHR contents

In Dram Latency Queue (total = 0): 
DRAM[23]: 16 bks, busW=16 BL=2 CL=12, tRRD=3 tCCD=1, tRCD=12 tRAS=28 tRP=12 tRC=40
n_cmd=15895 n_nop=11623 n_act=208 n_pre=192 n_ref_event=0 n_req=4104 n_rd=4104 n_rd_L2_A=0 n_write=0 n_wr_bk=0 bw_util=0.2582
n_activity=8657 dram_eff=0.4741
bk0: 232a 15560i bk1: 232a 15494i bk2: 192a 15587i bk3: 192a 15639i bk4: 272a 15274i bk5: 256a 15126i bk6: 352a 14724i bk7: 352a 15058i bk8: 248a 15242i bk9: 240a 15548i bk10: 288a 14980i bk11: 288a 15192i bk12: 256a 15265i bk13: 256a 15196i bk14: 224a 15272i bk15: 224a 14988i 

------------------------------------------------------------------------

Row_Buffer_Locality = 0.949318
Row_Buffer_Locality_read = 0.949318
Row_Buffer_Locality_write = -nan
Bank_Level_Parallism = 2.487197
Bank_Level_Parallism_Col = 2.036840
Bank_Level_Parallism_Ready = 1.514620
write_to_read_ratio_blp_rw_average = 0.000000
GrpLevelPara = 1.738511 

BW Util details:
bwutil = 0.258194 
total_CMD = 15895 
util_bw = 4104 
Wasted_Col = 1202 
Wasted_Row = 435 
Idle = 10154 

BW Util Bottlenecks: 
RCDc_limit = 984 
RCDWRc_limit = 0 
WTRc_limit = 0 
RTWc_limit = 0 
CCDLc_limit = 786 
rwq = 0 
CCDLc_limit_alone = 786 
WTRc_limit_alone = 0 
RTWc_limit_alone = 0 

Commands details: 
total_CMD = 15895 
n_nop = 11623 
Read = 4104 
Write = 0 
L2_Alloc = 0 
L2_WB = 0 
n_act = 208 
n_pre = 192 
n_ref = 0 
n_req = 4104 
total_req = 4104 

Dual Bus Interface Util: 
issued_total_row = 400 
issued_total_col = 4104 
Row_Bus_Util =  0.025165 
CoL_Bus_Util = 0.258194 
Either_Row_CoL_Bus_Util = 0.268764 
Issued_on_Two_Bus_Simul_Util = 0.014596 
issued_two_Eff = 0.054307 
queue_avg = 1.980245 


dram_util_bins: 0 0 0 0 0 0 0 0 0 0
dram_eff_bins: 0 0 0 0 0 0 0 0 0 0
mrqq: max=33 avg=1.98025

========= L2 cache stats =========
L2_cache_bank[0]: Access = 11736, Miss = 5612, Miss_rate = 0.478, Pending_hits = 0, Reservation_fails = 0
L2_cache_bank[1]: Access = 9568, Miss = 4160, Miss_rate = 0.435, Pending_hits = 0, Reservation_fails = 0
L2_cache_bank[2]: Access = 11736, Miss = 5604, Miss_rate = 0.478, Pending_hits = 0, Reservation_fails = 12
L2_cache_bank[3]: Access = 9568, Miss = 4156, Miss_rate = 0.434, Pending_hits = 0, Reservation_fails = 0
L2_cache_bank[4]: Access = 11736, Miss = 5608, Miss_rate = 0.478, Pending_hits = 0, Reservation_fails = 39
L2_cache_bank[5]: Access = 9568, Miss = 4156, Miss_rate = 0.434, Pending_hits = 0, Reservation_fails = 0
L2_cache_bank[6]: Access = 11736, Miss = 5624, Miss_rate = 0.479, Pending_hits = 0, Reservation_fails = 0
L2_cache_bank[7]: Access = 9568, Miss = 4164, Miss_rate = 0.435, Pending_hits = 0, Reservation_fails = 74
L2_cache_bank[8]: Access = 11736, Miss = 5660, Miss_rate = 0.482, Pending_hits = 0, Reservation_fails = 20
L2_cache_bank[9]: Access = 9568, Miss = 4144, Miss_rate = 0.433, Pending_hits = 0, Reservation_fails = 0
L2_cache_bank[10]: Access = 11736, Miss = 5660, Miss_rate = 0.482, Pending_hits = 0, Reservation_fails = 9
L2_cache_bank[11]: Access = 9568, Miss = 4156, Miss_rate = 0.434, Pending_hits = 0, Reservation_fails = 0
L2_cache_bank[12]: Access = 11736, Miss = 5640, Miss_rate = 0.481, Pending_hits = 0, Reservation_fails = 24
L2_cache_bank[13]: Access = 9568, Miss = 4148, Miss_rate = 0.434, Pending_hits = 0, Reservation_fails = 0
L2_cache_bank[14]: Access = 11736, Miss = 5632, Miss_rate = 0.480, Pending_hits = 0, Reservation_fails = 34
L2_cache_bank[15]: Access = 9568, Miss = 4136, Miss_rate = 0.432, Pending_hits = 0, Reservation_fails = 0
L2_cache_bank[16]: Access = 5928, Miss = 2216, Miss_rate = 0.374, Pending_hits = 0, Reservation_fails = 0
L2_cache_bank[17]: Access = 4792, Miss = 1896, Miss_rate = 0.396, Pending_hits = 0, Reservation_fails = 0
L2_cache_bank[18]: Access = 5928, Miss = 2216, Miss_rate = 0.374, Pending_hits = 0, Reservation_fails = 0
L2_cache_bank[19]: Access = 4792, Miss = 1896, Miss_rate = 0.396, Pending_hits = 0, Reservation_fails = 0
L2_cache_bank[20]: Access = 5928, Miss = 2216, Miss_rate = 0.374, Pending_hits = 0, Reservation_fails = 0
L2_cache_bank[21]: Access = 4792, Miss = 1896, Miss_rate = 0.396, Pending_hits = 0, Reservation_fails = 0
L2_cache_bank[22]: Access = 5928, Miss = 2216, Miss_rate = 0.374, Pending_hits = 0, Reservation_fails = 0
L2_cache_bank[23]: Access = 4792, Miss = 1896, Miss_rate = 0.396, Pending_hits = 0, Reservation_fails = 0
L2_cache_bank[24]: Access = 5928, Miss = 2216, Miss_rate = 0.374, Pending_hits = 0, Reservation_fails = 0
L2_cache_bank[25]: Access = 4792, Miss = 1896, Miss_rate = 0.396, Pending_hits = 0, Reservation_fails = 0
L2_cache_bank[26]: Access = 5928, Miss = 2216, Miss_rate = 0.374, Pending_hits = 0, Reservation_fails = 0
L2_cache_bank[27]: Access = 4792, Miss = 1896, Miss_rate = 0.396, Pending_hits = 0, Reservation_fails = 0
L2_cache_bank[28]: Access = 5928, Miss = 2216, Miss_rate = 0.374, Pending_hits = 0, Reservation_fails = 0
L2_cache_bank[29]: Access = 4792, Miss = 1896, Miss_rate = 0.396, Pending_hits = 0, Reservation_fails = 0
L2_cache_bank[30]: Access = 5928, Miss = 2216, Miss_rate = 0.374, Pending_hits = 0, Reservation_fails = 0
L2_cache_bank[31]: Access = 4792, Miss = 1896, Miss_rate = 0.396, Pending_hits = 0, Reservation_fails = 0
L2_cache_bank[32]: Access = 5776, Miss = 2128, Miss_rate = 0.368, Pending_hits = 0, Reservation_fails = 0
L2_cache_bank[33]: Access = 5032, Miss = 1976, Miss_rate = 0.393, Pending_hits = 0, Reservation_fails = 0
L2_cache_bank[34]: Access = 5776, Miss = 2128, Miss_rate = 0.368, Pending_hits = 0, Reservation_fails = 0
L2_cache_bank[35]: Access = 5032, Miss = 1976, Miss_rate = 0.393, Pending_hits = 0, Reservation_fails = 0
L2_cache_bank[36]: Access = 5776, Miss = 2128, Miss_rate = 0.368, Pending_hits = 0, Reservation_fails = 0
L2_cache_bank[37]: Access = 5032, Miss = 1976, Miss_rate = 0.393, Pending_hits = 0, Reservation_fails = 0
L2_cache_bank[38]: Access = 5776, Miss = 2128, Miss_rate = 0.368, Pending_hits = 0, Reservation_fails = 0
L2_cache_bank[39]: Access = 5032, Miss = 1976, Miss_rate = 0.393, Pending_hits = 0, Reservation_fails = 0
L2_cache_bank[40]: Access = 5776, Miss = 2128, Miss_rate = 0.368, Pending_hits = 0, Reservation_fails = 0
L2_cache_bank[41]: Access = 5032, Miss = 1976, Miss_rate = 0.393, Pending_hits = 0, Reservation_fails = 0
L2_cache_bank[42]: Access = 5776, Miss = 2128, Miss_rate = 0.368, Pending_hits = 0, Reservation_fails = 0
L2_cache_bank[43]: Access = 5032, Miss = 1976, Miss_rate = 0.393, Pending_hits = 0, Reservation_fails = 0
L2_cache_bank[44]: Access = 5776, Miss = 2128, Miss_rate = 0.368, Pending_hits = 0, Reservation_fails = 0
L2_cache_bank[45]: Access = 5032, Miss = 1976, Miss_rate = 0.393, Pending_hits = 0, Reservation_fails = 0
L2_cache_bank[46]: Access = 5776, Miss = 2128, Miss_rate = 0.368, Pending_hits = 0, Reservation_fails = 0
L2_cache_bank[47]: Access = 5032, Miss = 1976, Miss_rate = 0.393, Pending_hits = 0, Reservation_fails = 0
L2_total_cache_accesses = 342656
L2_total_cache_misses = 143988
L2_total_cache_miss_rate = 0.4202
L2_total_cache_pending_hits = 0
L2_total_cache_reservation_fails = 212
L2_total_cache_breakdown:
	L2_cache_stats_breakdown[GLOBAL_ACC_R][HIT] = 67724
	L2_cache_stats_breakdown[GLOBAL_ACC_R][HIT_RESERVED] = 0
	L2_cache_stats_breakdown[GLOBAL_ACC_R][MISS] = 35965
	L2_cache_stats_breakdown[GLOBAL_ACC_R][RESERVATION_FAIL] = 212
	L2_cache_stats_breakdown[GLOBAL_ACC_R][SECTOR_MISS] = 107895
	L2_cache_stats_breakdown[GLOBAL_ACC_R][MSHR_HIT] = 0
	L2_cache_stats_breakdown[LOCAL_ACC_R][HIT] = 0
	L2_cache_stats_breakdown[LOCAL_ACC_R][HIT_RESERVED] = 0
	L2_cache_stats_breakdown[LOCAL_ACC_R][MISS] = 0
	L2_cache_stats_breakdown[LOCAL_ACC_R][RESERVATION_FAIL] = 0
	L2_cache_stats_breakdown[LOCAL_ACC_R][SECTOR_MISS] = 0
	L2_cache_stats_breakdown[LOCAL_ACC_R][MSHR_HIT] = 0
	L2_cache_stats_breakdown[CONST_ACC_R][HIT] = 0
	L2_cache_stats_breakdown[CONST_ACC_R][HIT_RESERVED] = 0
	L2_cache_stats_breakdown[CONST_ACC_R][MISS] = 0
	L2_cache_stats_breakdown[CONST_ACC_R][RESERVATION_FAIL] = 0
	L2_cache_stats_breakdown[CONST_ACC_R][SECTOR_MISS] = 0
	L2_cache_stats_breakdown[CONST_ACC_R][MSHR_HIT] = 0
	L2_cache_stats_breakdown[TEXTURE_ACC_R][HIT] = 0
	L2_cache_stats_breakdown[TEXTURE_ACC_R][HIT_RESERVED] = 0
	L2_cache_stats_breakdown[TEXTURE_ACC_R][MISS] = 0
	L2_cache_stats_breakdown[TEXTURE_ACC_R][RESERVATION_FAIL] = 0
	L2_cache_stats_breakdown[TEXTURE_ACC_R][SECTOR_MISS] = 0
	L2_cache_stats_breakdown[TEXTURE_ACC_R][MSHR_HIT] = 0
	L2_cache_stats_breakdown[GLOBAL_ACC_W][HIT] = 130944
	L2_cache_stats_breakdown[GLOBAL_ACC_W][HIT_RESERVED] = 0
	L2_cache_stats_breakdown[GLOBAL_ACC_W][MISS] = 32
	L2_cache_stats_breakdown[GLOBAL_ACC_W][RESERVATION_FAIL] = 0
	L2_cache_stats_breakdown[GLOBAL_ACC_W][SECTOR_MISS] = 96
	L2_cache_stats_breakdown[GLOBAL_ACC_W][MSHR_HIT] = 0
	L2_cache_stats_breakdown[LOCAL_ACC_W][HIT] = 0
	L2_cache_stats_breakdown[LOCAL_ACC_W][HIT_RESERVED] = 0
	L2_cache_stats_breakdown[LOCAL_ACC_W][MISS] = 0
	L2_cache_stats_breakdown[LOCAL_ACC_W][RESERVATION_FAIL] = 0
	L2_cache_stats_breakdown[LOCAL_ACC_W][SECTOR_MISS] = 0
	L2_cache_stats_breakdown[LOCAL_ACC_W][MSHR_HIT] = 0
	L2_cache_stats_breakdown[L1_WRBK_ACC][HIT] = 0
	L2_cache_stats_breakdown[L1_WRBK_ACC][HIT_RESERVED] = 0
	L2_cache_stats_breakdown[L1_WRBK_ACC][MISS] = 0
	L2_cache_stats_breakdown[L1_WRBK_ACC][RESERVATION_FAIL] = 0
	L2_cache_stats_breakdown[L1_WRBK_ACC][SECTOR_MISS] = 0
	L2_cache_stats_breakdown[L1_WRBK_ACC][MSHR_HIT] = 0
	L2_cache_stats_breakdown[L2_WRBK_ACC][HIT] = 0
	L2_cache_stats_breakdown[L2_WRBK_ACC][HIT_RESERVED] = 0
	L2_cache_stats_breakdown[L2_WRBK_ACC][MISS] = 0
	L2_cache_stats_breakdown[L2_WRBK_ACC][RESERVATION_FAIL] = 0
	L2_cache_stats_breakdown[L2_WRBK_ACC][SECTOR_MISS] = 0
	L2_cache_stats_breakdown[L2_WRBK_ACC][MSHR_HIT] = 0
	L2_cache_stats_breakdown[INST_ACC_R][HIT] = 0
	L2_cache_stats_breakdown[INST_ACC_R][HIT_RESERVED] = 0
	L2_cache_stats_breakdown[INST_ACC_R][MISS] = 0
	L2_cache_stats_breakdown[INST_ACC_R][RESERVATION_FAIL] = 0
	L2_cache_stats_breakdown[INST_ACC_R][SECTOR_MISS] = 0
	L2_cache_stats_breakdown[INST_ACC_R][MSHR_HIT] = 0
	L2_cache_stats_breakdown[L1_WR_ALLOC_R][HIT] = 0
	L2_cache_stats_breakdown[L1_WR_ALLOC_R][HIT_RESERVED] = 0
	L2_cache_stats_breakdown[L1_WR_ALLOC_R][MISS] = 0
	L2_cache_stats_breakdown[L1_WR_ALLOC_R][RESERVATION_FAIL] = 0
	L2_cache_stats_breakdown[L1_WR_ALLOC_R][SECTOR_MISS] = 0
	L2_cache_stats_breakdown[L1_WR_ALLOC_R][MSHR_HIT] = 0
	L2_cache_stats_breakdown[L2_WR_ALLOC_R][HIT] = 0
	L2_cache_stats_breakdown[L2_WR_ALLOC_R][HIT_RESERVED] = 0
	L2_cache_stats_breakdown[L2_WR_ALLOC_R][MISS] = 0
	L2_cache_stats_breakdown[L2_WR_ALLOC_R][RESERVATION_FAIL] = 0
	L2_cache_stats_breakdown[L2_WR_ALLOC_R][SECTOR_MISS] = 0
	L2_cache_stats_breakdown[L2_WR_ALLOC_R][MSHR_HIT] = 0
	L2_cache_stats_breakdown[GLOBAL_ACC_R][TOTAL_ACCESS] = 211584
	L2_cache_stats_breakdown[GLOBAL_ACC_W][TOTAL_ACCESS] = 131072
L2_total_cache_reservation_fail_breakdown:
	L2_cache_stats_fail_breakdown[GLOBAL_ACC_R][MSHR_ENRTY_FAIL] = 212
L2_cache_data_port_util = 0.185
L2_cache_fill_port_util = 0.134

icnt_total_pkts_mem_to_simt=342656
icnt_total_pkts_simt_to_mem=342656
LD_mem_lat_dist  0 0 0 0 0 0 0 0 0 0 0 0 0 0 0 0 0 0 0 0 0 0 0 0 0 0 0
ST_mem_lat_dist  0 0 0 0 0 0 0 0 0 0 0 0 0 0 0 0 0 0 0 0 0 0 0 0 0 0 0
----------------------------Interconnect-DETAILS--------------------------------
Req_Network_injected_packets_num = 342656
Req_Network_cycles = 22441
Req_Network_injected_packets_per_cycle =      15.2692 
Req_Network_conflicts_per_cycle =      16.3420
Req_Network_conflicts_per_cycle_util =      17.2490
Req_Bank_Level_Parallism =      16.1166
Req_Network_in_buffer_full_per_cycle =       4.8910
Req_Network_in_buffer_avg_util =     149.2634
Req_Network_out_buffer_full_per_cycle =       0.0955
Req_Network_out_buffer_avg_util =      38.5249

Reply_Network_injected_packets_num = 342656
Reply_Network_cycles = 22441
Reply_Network_injected_packets_per_cycle =       15.2692
Reply_Network_conflicts_per_cycle =       19.3376
Reply_Network_conflicts_per_cycle_util =      20.4580
Reply_Bank_Level_Parallism =      16.1539
Reply_Network_in_buffer_full_per_cycle =       0.0099
Reply_Network_in_buffer_avg_util =      48.6913
Reply_Network_out_buffer_full_per_cycle =       0.0000
Reply_Network_out_buffer_avg_util =       0.3817
----------------------------END-of-Interconnect-DETAILS-------------------------


gpgpu_simulation_time = 0 days, 0 hrs, 0 min, 47 sec (47 sec)
gpgpu_simulation_rate = 301186 (inst/sec)
gpgpu_simulation_rate = 477 (cycle/sec)
gpgpu_silicon_slowdown = 2515723x
GPGPU-Sim: *** simulation thread exiting ***
GPGPU-Sim: *** exit detected ***
