Accel-Sim [build accelsim-commit-912943dd3066cb45d21168b970186a9aed0d22f4_modified_1.0]

        *** GPGPU-Sim Simulator Version 4.2.0  [build gpgpu-sim_git-commit-e8cc02df20c1a116f4c6bc029b625b5e7f2e9b24_modified_9.0] ***


GPGPU-Sim: Configuration options:

-save_embedded_ptx                      0 # saves ptx files embedded in binary as <n>.ptx
-keep                                   0 # keep intermediate files created by GPGPU-Sim when interfacing with external programs
-gpgpu_ptx_save_converted_ptxplus                    0 # Saved converted ptxplus to a file
-gpgpu_occupancy_sm_number                   70 # The SM number to pass to ptxas when getting register usage for computing GPU occupancy. This parameter is required in the config.
-ptx_opcode_latency_int      4,13,4,5,145,21 # Opcode latencies for integers <ADD,MAX,MUL,MAD,DIV,SHFL>Default 1,1,19,25,145,32
-ptx_opcode_latency_fp          4,13,4,5,39 # Opcode latencies for single precision floating points <ADD,MAX,MUL,MAD,DIV>Default 1,1,1,1,30
-ptx_opcode_latency_dp         8,19,8,8,330 # Opcode latencies for double precision floating points <ADD,MAX,MUL,MAD,DIV>Default 8,8,8,8,335
-ptx_opcode_latency_sfu                  100 # Opcode latencies for SFU instructionsDefault 8
-ptx_opcode_latency_tesnor                   64 # Opcode latencies for Tensor instructionsDefault 64
-ptx_opcode_initiation_int          2,2,2,2,8,4 # Opcode initiation intervals for integers <ADD,MAX,MUL,MAD,DIV,SHFL>Default 1,1,4,4,32,4
-ptx_opcode_initiation_fp            2,2,2,2,4 # Opcode initiation intervals for single precision floating points <ADD,MAX,MUL,MAD,DIV>Default 1,1,1,1,5
-ptx_opcode_initiation_dp          4,4,4,4,130 # Opcode initiation intervals for double precision floating points <ADD,MAX,MUL,MAD,DIV>Default 8,8,8,8,130
-ptx_opcode_initiation_sfu                    8 # Opcode initiation intervals for sfu instructionsDefault 8
-ptx_opcode_initiation_tensor                   64 # Opcode initiation intervals for tensor instructionsDefault 64
-cdp_latency         7200,8000,100,12000,1600 # CDP API latency <cudaStreamCreateWithFlags, cudaGetParameterBufferV2_init_perWarp, cudaGetParameterBufferV2_perKernel, cudaLaunchDeviceV2_init_perWarp, cudaLaunchDevicV2_perKernel>Default 7200,8000,100,12000,1600
-network_mode                           2 # Interconnection network mode
-inter_config_file                   mesh # Interconnection network config file
-icnt_in_buffer_limit                  512 # in_buffer_limit
-icnt_out_buffer_limit                  512 # out_buffer_limit
-icnt_subnets                           2 # subnets
-icnt_arbiter_algo                      1 # arbiter_algo
-icnt_verbose                           0 # inct_verbose
-icnt_grant_cycles                      1 # grant_cycles
-gpgpu_ptx_use_cuobjdump                    1 # Use cuobjdump to extract ptx and sass from binaries
-gpgpu_experimental_lib_support                    0 # Try to extract code from cuda libraries [Broken because of unknown cudaGetExportTable]
-checkpoint_option                      0 #  checkpointing flag (0 = no checkpoint)
-checkpoint_kernel                      1 #  checkpointing during execution of which kernel (1- 1st kernel)
-checkpoint_CTA                         0 #  checkpointing after # of CTA (< less than total CTA)
-resume_option                          0 #  resume flag (0 = no resume)
-resume_kernel                          0 #  Resume from which kernel (1= 1st kernel)
-resume_CTA                             0 #  resume from which CTA 
-checkpoint_CTA_t                       0 #  resume from which CTA 
-checkpoint_insn_Y                      0 #  resume from which CTA 
-gpgpu_ptx_convert_to_ptxplus                    0 # Convert SASS (native ISA) to ptxplus and run ptxplus
-gpgpu_ptx_force_max_capability                   70 # Force maximum compute capability
-gpgpu_ptx_inst_debug_to_file                    0 # Dump executed instructions' debug information to file
-gpgpu_ptx_inst_debug_file       inst_debug.txt # Executed instructions' debug output file
-gpgpu_ptx_inst_debug_thread_uid                    1 # Thread UID for executed instructions' debug output
-gpgpu_simd_model                       1 # 1 = post-dominator
-gpgpu_shader_core_pipeline              2048:32 # shader core pipeline config, i.e., {<nthread>:<warpsize>}
-gpgpu_tex_cache:l1  N:4:128:256,L:R:m:N:L,T:512:8,128:2 # per-shader L1 texture cache  (READ-ONLY) config  {<nsets>:<bsize>:<assoc>,<rep>:<wr>:<alloc>:<wr_alloc>,<mshr>:<N>:<merge>,<mq>:<rf>}
-gpgpu_const_cache:l1 N:128:64:8,L:R:f:N:L,S:2:64,4 # per-shader L1 constant memory cache  (READ-ONLY) config  {<nsets>:<bsize>:<assoc>,<rep>:<wr>:<alloc>:<wr_alloc>,<mshr>:<N>:<merge>,<mq>} 
-gpgpu_cache:il1     N:64:128:16,L:R:f:N:L,S:2:48,4 # shader L1 instruction cache config  {<nsets>:<bsize>:<assoc>,<rep>:<wr>:<alloc>:<wr_alloc>,<mshr>:<N>:<merge>,<mq>} 
-gpgpu_cache:dl1     S:4:128:64,L:T:m:L:L,A:512:8,16:0,32 # per-shader L1 data cache config  {<nsets>:<bsize>:<assoc>,<rep>:<wr>:<alloc>:<wr_alloc>,<mshr>:<N>:<merge>,<mq> | none}
-gpgpu_l1_cache_write_ratio                   25 # L1D write ratio
-gpgpu_l1_banks                         4 # The number of L1 cache banks
-gpgpu_l1_banks_byte_interleaving                   32 # l1 banks byte interleaving granularity
-gpgpu_l1_banks_hashing_function                    0 # l1 banks hashing function
-gpgpu_l1_latency                      20 # L1 Hit Latency
-gpgpu_smem_latency                    20 # smem Latency
-gpgpu_cache:dl1PrefL1                 none # per-shader L1 data cache config  {<nsets>:<bsize>:<assoc>,<rep>:<wr>:<alloc>:<wr_alloc>,<mshr>:<N>:<merge>,<mq> | none}
-gpgpu_cache:dl1PrefShared                 none # per-shader L1 data cache config  {<nsets>:<bsize>:<assoc>,<rep>:<wr>:<alloc>:<wr_alloc>,<mshr>:<N>:<merge>,<mq> | none}
-gpgpu_gmem_skip_L1D                    0 # global memory access skip L1D cache (implements -Xptxas -dlcm=cg, default=no skip)
-gpgpu_perfect_mem                      0 # enable perfect memory mode (no cache miss)
-n_regfile_gating_group                    4 # group of lanes that should be read/written together)
-gpgpu_clock_gated_reg_file                    0 # enable clock gated reg file for power calculations
-gpgpu_clock_gated_lanes                    1 # enable clock gated lanes for power calculations
-gpgpu_shader_registers                65536 # Number of registers per shader core. Limits number of concurrent CTAs. (default 8192)
-gpgpu_registers_per_block                65536 # Maximum number of registers per CTA. (default 8192)
-gpgpu_ignore_resources_limitation                    0 # gpgpu_ignore_resources_limitation (default 0)
-gpgpu_shader_cta                      32 # Maximum number of concurrent CTAs in shader (default 32)
-gpgpu_num_cta_barriers                   16 # Maximum number of named barriers per CTA (default 16)
-gpgpu_n_clusters                      80 # number of processing clusters
-gpgpu_n_cores_per_cluster                    1 # number of simd cores per cluster
-gpgpu_n_cluster_ejection_buffer_size                   32 # number of packets in ejection buffer
-gpgpu_n_ldst_response_buffer_size                    2 # number of response packets in ld/st unit ejection buffer
-gpgpu_shmem_per_block                65536 # Size of shared memory per thread block or CTA (default 48kB)
-gpgpu_shmem_size                   98304 # Size of shared memory per shader core (default 16kB)
-gpgpu_shmem_option       0,8,16,32,64,96 # Option list of shared memory sizes
-gpgpu_unified_l1d_size                  128 # Size of unified data cache(L1D + shared memory) in KB
-gpgpu_adaptive_cache_config                    1 # adaptive_cache_config
-gpgpu_shmem_sizeDefault                98304 # Size of shared memory per shader core (default 16kB)
-gpgpu_shmem_size_PrefL1                16384 # Size of shared memory per shader core (default 16kB)
-gpgpu_shmem_size_PrefShared                16384 # Size of shared memory per shader core (default 16kB)
-gpgpu_shmem_num_banks                   32 # Number of banks in the shared memory in each shader core (default 16)
-gpgpu_shmem_limited_broadcast                    0 # Limit shared memory to do one broadcast per cycle (default on)
-gpgpu_shmem_warp_parts                    1 # Number of portions a warp is divided into for shared memory bank conflict check 
-gpgpu_mem_unit_ports                    1 # The number of memory transactions allowed per core cycle
-gpgpu_shmem_warp_parts                    1 # Number of portions a warp is divided into for shared memory bank conflict check 
-gpgpu_warpdistro_shader                   -1 # Specify which shader core to collect the warp size distribution from
-gpgpu_warp_issue_shader                    0 # Specify which shader core to collect the warp issue distribution from
-gpgpu_local_mem_map                    1 # Mapping from local memory space address to simulated GPU physical address space (default = enabled)
-gpgpu_num_reg_banks                   16 # Number of register banks (default = 8)
-gpgpu_reg_bank_use_warp_id                    0 # Use warp ID in mapping registers to banks (default = off)
-gpgpu_sub_core_model                    1 # Sub Core Volta/Pascal model (default = off)
-gpgpu_enable_specialized_operand_collector                    0 # enable_specialized_operand_collector
-gpgpu_operand_collector_num_units_sp                    4 # number of collector units (default = 4)
-gpgpu_operand_collector_num_units_dp                    0 # number of collector units (default = 0)
-gpgpu_operand_collector_num_units_sfu                    4 # number of collector units (default = 4)
-gpgpu_operand_collector_num_units_int                    0 # number of collector units (default = 0)
-gpgpu_operand_collector_num_units_tensor_core                    4 # number of collector units (default = 4)
-gpgpu_operand_collector_num_units_mem                    2 # number of collector units (default = 2)
-gpgpu_operand_collector_num_units_gen                    8 # number of collector units (default = 0)
-gpgpu_operand_collector_num_in_ports_sp                    1 # number of collector unit in ports (default = 1)
-gpgpu_operand_collector_num_in_ports_dp                    0 # number of collector unit in ports (default = 0)
-gpgpu_operand_collector_num_in_ports_sfu                    1 # number of collector unit in ports (default = 1)
-gpgpu_operand_collector_num_in_ports_int                    0 # number of collector unit in ports (default = 0)
-gpgpu_operand_collector_num_in_ports_tensor_core                    1 # number of collector unit in ports (default = 1)
-gpgpu_operand_collector_num_in_ports_mem                    1 # number of collector unit in ports (default = 1)
-gpgpu_operand_collector_num_in_ports_gen                    8 # number of collector unit in ports (default = 0)
-gpgpu_operand_collector_num_out_ports_sp                    1 # number of collector unit in ports (default = 1)
-gpgpu_operand_collector_num_out_ports_dp                    0 # number of collector unit in ports (default = 0)
-gpgpu_operand_collector_num_out_ports_sfu                    1 # number of collector unit in ports (default = 1)
-gpgpu_operand_collector_num_out_ports_int                    0 # number of collector unit in ports (default = 0)
-gpgpu_operand_collector_num_out_ports_tensor_core                    1 # number of collector unit in ports (default = 1)
-gpgpu_operand_collector_num_out_ports_mem                    1 # number of collector unit in ports (default = 1)
-gpgpu_operand_collector_num_out_ports_gen                    8 # number of collector unit in ports (default = 0)
-gpgpu_coalesce_arch                   70 # Coalescing arch (GT200 = 13, Fermi = 20)
-gpgpu_num_sched_per_core                    4 # Number of warp schedulers per core
-gpgpu_max_insn_issue_per_warp                    1 # Max number of instructions that can be issued per warp in one cycle by scheduler (either 1 or 2)
-gpgpu_dual_issue_diff_exec_units                    1 # should dual issue use two different execution unit resources (Default = 1)
-gpgpu_simt_core_sim_order                    1 # Select the simulation order of cores in a cluster (0=Fix, 1=Round-Robin)
-gpgpu_pipeline_widths 4,4,4,4,4,4,4,4,4,4,8,4,4 # Pipeline widths ID_OC_SP,ID_OC_DP,ID_OC_INT,ID_OC_SFU,ID_OC_MEM,OC_EX_SP,OC_EX_DP,OC_EX_INT,OC_EX_SFU,OC_EX_MEM,EX_WB,ID_OC_TENSOR_CORE,OC_EX_TENSOR_CORE
-gpgpu_tensor_core_avail                    1 # Tensor Core Available (default=0)
-gpgpu_num_sp_units                     4 # Number of SP units (default=1)
-gpgpu_num_dp_units                     4 # Number of DP units (default=0)
-gpgpu_num_int_units                    4 # Number of INT units (default=0)
-gpgpu_num_sfu_units                    4 # Number of SF units (default=1)
-gpgpu_num_tensor_core_units                    4 # Number of tensor_core units (default=1)
-gpgpu_num_mem_units                    1 # Number if ldst units (default=1) WARNING: not hooked up to anything
-gpgpu_scheduler                      lrr # Scheduler configuration: < lrr | gto | two_level_active > If two_level_active:<num_active_warps>:<inner_prioritization>:<outer_prioritization>For complete list of prioritization values see shader.h enum scheduler_prioritization_typeDefault: gto
-gpgpu_concurrent_kernel_sm                    1 # Support concurrent kernels on a SM (default = disabled)
-gpgpu_perfect_inst_const_cache                    1 # perfect inst and const cache mode, so all inst and const hits in the cache(default = disabled)
-gpgpu_inst_fetch_throughput                    4 # the number of fetched intruction per warp each cycle
-gpgpu_reg_file_port_throughput                    2 # the number ports of the register file
-specialized_unit_1         1,4,4,4,4,BRA # specialized unit config {<enabled>,<num_units>:<latency>:<initiation>,<ID_OC_SPEC>:<OC_EX_SPEC>,<NAME>}
-specialized_unit_2       1,4,200,4,4,TEX # specialized unit config {<enabled>,<num_units>:<latency>:<initiation>,<ID_OC_SPEC>:<OC_EX_SPEC>,<NAME>}
-specialized_unit_3      1,4,8,4,4,TENSOR # specialized unit config {<enabled>,<num_units>:<latency>:<initiation>,<ID_OC_SPEC>:<OC_EX_SPEC>,<NAME>}
-specialized_unit_4         0,4,4,4,4,BRA # specialized unit config {<enabled>,<num_units>:<latency>:<initiation>,<ID_OC_SPEC>:<OC_EX_SPEC>,<NAME>}
-specialized_unit_5         0,4,4,4,4,BRA # specialized unit config {<enabled>,<num_units>:<latency>:<initiation>,<ID_OC_SPEC>:<OC_EX_SPEC>,<NAME>}
-specialized_unit_6         0,4,4,4,4,BRA # specialized unit config {<enabled>,<num_units>:<latency>:<initiation>,<ID_OC_SPEC>:<OC_EX_SPEC>,<NAME>}
-specialized_unit_7         0,4,4,4,4,BRA # specialized unit config {<enabled>,<num_units>:<latency>:<initiation>,<ID_OC_SPEC>:<OC_EX_SPEC>,<NAME>}
-specialized_unit_8         0,4,4,4,4,BRA # specialized unit config {<enabled>,<num_units>:<latency>:<initiation>,<ID_OC_SPEC>:<OC_EX_SPEC>,<NAME>}
-gpgpu_perf_sim_memcpy                    1 # Fill the L2 cache on memcpy
-gpgpu_simple_dram_model                    0 # simple_dram_model with fixed latency and BW
-gpgpu_dram_scheduler                    1 # 0 = fifo, 1 = FR-FCFS (defaul)
-gpgpu_dram_partition_queues          64:64:64:64 # i2$:$2d:d2$:$2i
-l2_ideal                               0 # Use a ideal L2 cache that always hit
-gpgpu_cache:dl2     S:32:128:24,L:B:m:L:P,A:192:4,32:0,32 # unified banked L2 data cache config  {<nsets>:<bsize>:<assoc>,<rep>:<wr>:<alloc>:<wr_alloc>,<mshr>:<N>:<merge>,<mq>}
-gpgpu_cache:dl2_texture_only                    0 # L2 cache used for texture only
-gpgpu_n_mem                           32 # number of memory modules (e.g. memory controllers) in gpu
-gpgpu_n_sub_partition_per_mchannel                    2 # number of memory subpartition in each memory module
-gpgpu_n_mem_per_ctrlr                    1 # number of memory chips per memory controller
-gpgpu_memlatency_stat                   14 # track and display latency statistics 0x2 enables MC, 0x4 enables queue logs
-gpgpu_frfcfs_dram_sched_queue_size                   64 # 0 = unlimited (default); # entries per chip
-gpgpu_dram_return_queue_size                  192 # 0 = unlimited (default); # entries per chip
-gpgpu_dram_buswidth                   16 # default = 4 bytes (8 bytes per cycle at DDR)
-gpgpu_dram_burst_length                    2 # Burst length of each DRAM request (default = 4 data bus cycle)
-dram_data_command_freq_ratio                    2 # Frequency ratio between DRAM data bus and command bus (default = 2 times, i.e. DDR)
-gpgpu_dram_timing_opt nbk=16:CCD=1:RRD=3:RCD=12:RAS=28:RP=12:RC=40: CL=12:WL=2:CDLR=3:WR=10:nbkgrp=4:CCDL=2:RTPL=3 # DRAM timing parameters = {nbk:tCCD:tRRD:tRCD:tRAS:tRP:tRC:CL:WL:tCDLR:tWR:nbkgrp:tCCDL:tRTPL}
-gpgpu_l2_rop_latency                  160 # ROP queue latency (default 85)
-dram_latency                         100 # DRAM latency (default 30)
-dram_dual_bus_interface                    1 # dual_bus_interface (default = 0) 
-dram_bnk_indexing_policy                    0 # dram_bnk_indexing_policy (0 = normal indexing, 1 = Xoring with the higher bits) (Default = 0)
-dram_bnkgrp_indexing_policy                    1 # dram_bnkgrp_indexing_policy (0 = take higher bits, 1 = take lower bits) (Default = 0)
-dram_seperate_write_queue_enable                    0 # Seperate_Write_Queue_Enable
-dram_write_queue_size             32:28:16 # Write_Queue_Size
-dram_elimnate_rw_turnaround                    0 # elimnate_rw_turnaround i.e set tWTR and tRTW = 0
-icnt_flit_size                        40 # icnt_flit_size
-gpgpu_mem_addr_mapping dramid@8;00000000.00000000.00000000.00000000.0000RRRR.RRRRRRRR.RBBBCCCB.CCCSSSSS # mapping memory address to dram model {dramid@<start bit>;<memory address map>}
-gpgpu_mem_addr_test                    0 # run sweep test to check address mapping for aliased address
-gpgpu_mem_address_mask                    1 # 0 = old addressing mask, 1 = new addressing mask, 2 = new add. mask + flipped bank sel and chip sel bits
-gpgpu_memory_partition_indexing                    2 # 0 = no indexing, 1 = bitwise xoring, 2 = IPoly, 3 = custom indexing
-accelwattch_xml_file accelwattch_sass_sim.xml # AccelWattch XML file
-power_simulation_enabled                    0 # Turn on power simulator (1=On, 0=Off)
-power_per_cycle_dump                    0 # Dump detailed power output each cycle
-hw_perf_file_name            hw_perf.csv # Hardware Performance Statistics file
-hw_perf_bench_name                       # Kernel Name in Hardware Performance Statistics file
-power_simulation_mode                    0 # Switch performance counter input for power simulation (0=Sim, 1=HW, 2=HW-Sim Hybrid)
-dvfs_enabled                           0 # Turn on DVFS for power model
-aggregate_power_stats                    0 # Accumulate power across all kernels
-accelwattch_hybrid_perfsim_L1_RH                    0 # Get L1 Read Hits for Accelwattch-Hybrid from Accel-Sim
-accelwattch_hybrid_perfsim_L1_RM                    0 # Get L1 Read Misses for Accelwattch-Hybrid from Accel-Sim
-accelwattch_hybrid_perfsim_L1_WH                    0 # Get L1 Write Hits for Accelwattch-Hybrid from Accel-Sim
-accelwattch_hybrid_perfsim_L1_WM                    0 # Get L1 Write Misses for Accelwattch-Hybrid from Accel-Sim
-accelwattch_hybrid_perfsim_L2_RH                    0 # Get L2 Read Hits for Accelwattch-Hybrid from Accel-Sim
-accelwattch_hybrid_perfsim_L2_RM                    0 # Get L2 Read Misses for Accelwattch-Hybrid from Accel-Sim
-accelwattch_hybrid_perfsim_L2_WH                    0 # Get L2 Write Hits for Accelwattch-Hybrid from Accel-Sim
-accelwattch_hybrid_perfsim_L2_WM                    0 # Get L2 Write Misses for Accelwattch-Hybrid from Accel-Sim
-accelwattch_hybrid_perfsim_CC_ACC                    0 # Get Constant Cache Acesses for Accelwattch-Hybrid from Accel-Sim
-accelwattch_hybrid_perfsim_SHARED_ACC                    0 # Get Shared Memory Acesses for Accelwattch-Hybrid from Accel-Sim
-accelwattch_hybrid_perfsim_DRAM_RD                    0 # Get DRAM Reads for Accelwattch-Hybrid from Accel-Sim
-accelwattch_hybrid_perfsim_DRAM_WR                    0 # Get DRAM Writes for Accelwattch-Hybrid from Accel-Sim
-accelwattch_hybrid_perfsim_NOC                    0 # Get Interconnect Acesses for Accelwattch-Hybrid from Accel-Sim
-accelwattch_hybrid_perfsim_PIPE_DUTY                    0 # Get Pipeline Duty Cycle Acesses for Accelwattch-Hybrid from Accel-Sim
-accelwattch_hybrid_perfsim_NUM_SM_IDLE                    0 # Get Number of Idle SMs for Accelwattch-Hybrid from Accel-Sim
-accelwattch_hybrid_perfsim_CYCLES                    0 # Get Executed Cycles for Accelwattch-Hybrid from Accel-Sim
-accelwattch_hybrid_perfsim_VOLTAGE                    0 # Get Chip Voltage for Accelwattch-Hybrid from Accel-Sim
-power_trace_enabled                    0 # produce a file for the power trace (1=On, 0=Off)
-power_trace_zlevel                     6 # Compression level of the power trace output log (0=no comp, 9=highest)
-steady_power_levels_enabled                    0 # produce a file for the steady power levels (1=On, 0=Off)
-steady_state_definition                  8:4 # allowed deviation:number of samples
-gpgpu_max_cycle                        0 # terminates gpu simulation early (0 = no limit)
-gpgpu_max_insn                         0 # terminates gpu simulation early (0 = no limit)
-gpgpu_max_cta                          0 # terminates gpu simulation early (0 = no limit)
-gpgpu_max_completed_cta                    0 # terminates gpu simulation early (0 = no limit)
-gpgpu_runtime_stat                   500 # display runtime statistics such as dram utilization {<freq>:<flag>}
-liveness_message_freq                    1 # Minimum number of seconds between simulation liveness messages (0 = always print)
-gpgpu_compute_capability_major                    7 # Major compute capability version number
-gpgpu_compute_capability_minor                    0 # Minor compute capability version number
-gpgpu_flush_l1_cache                    1 # Flush L1 cache at the end of each kernel call
-gpgpu_flush_l2_cache                    0 # Flush L2 cache at the end of each kernel call
-gpgpu_deadlock_detect                    1 # Stop the simulation at deadlock (1=on (default), 0=off)
-gpgpu_ptx_instruction_classification                    0 # if enabled will classify ptx instruction types per kernel (Max 255 kernels now)
-gpgpu_ptx_sim_mode                     0 # Select between Performance (default) or Functional simulation (1)
-gpgpu_clock_domains 1447.0:1447.0:1447.0:850.0 # Clock Domain Frequencies in MhZ {<Core Clock>:<ICNT Clock>:<L2 Clock>:<DRAM Clock>}
-gpgpu_max_concurrent_kernel                  128 # maximum kernels that can run concurrently on GPU, set this value according to max resident grids for your compute capability
-gpgpu_cflog_interval                    0 # Interval between each snapshot in control flow logger
-visualizer_enabled                     0 # Turn on visualizer output (1=On, 0=Off)
-visualizer_outputfile                 NULL # Specifies the output log file for visualizer
-visualizer_zlevel                      6 # Compression level of the visualizer output log (0=no comp, 9=highest)
-gpgpu_stack_size_limit                 1024 # GPU thread stack size
-gpgpu_heap_size_limit              8388608 # GPU malloc heap size 
-gpgpu_runtime_sync_depth_limit                    2 # GPU device runtime synchronize depth
-gpgpu_runtime_pending_launch_count_limit                 2048 # GPU device runtime pending launch count
-trace_enabled                          0 # Turn on traces
-trace_components                    none # comma seperated list of traces to enable. Complete list found in trace_streams.tup. Default none
-trace_sampling_core                    0 # The core which is printed using CORE_DPRINTF. Default 0
-trace_sampling_memory_partition                   -1 # The memory partition which is printed using MEMPART_DPRINTF. Default -1 (i.e. all)
-enable_ptx_file_line_stats                    1 # Turn on PTX source line statistic profiling. (1 = On)
-ptx_line_stats_filename gpgpu_inst_stats.txt # Output file for PTX source line statistics.
-gpgpu_kernel_launch_latency                 5000 # Kernel launch latency in cycles. Default: 0
-gpgpu_cdp_enabled                      0 # Turn on CDP
-gpgpu_TB_launch_latency                    0 # thread block launch latency in cycles. Default: 0
-trace               /nobackup/spati/accelsim/traces/hw_run/deepbench/11.0/gemm_bench-tencore/inference_half_35_1500_2560_0_0/traces/kernelslist.g # traces kernel filetraces kernel file directory
-trace_opcode_latency_initiation_int                  2,2 # Opcode latencies and initiation for integers in trace driven mode <latency,initiation>
-trace_opcode_latency_initiation_sp                  2,2 # Opcode latencies and initiation for sp in trace driven mode <latency,initiation>
-trace_opcode_latency_initiation_dp                  8,4 # Opcode latencies and initiation for dp in trace driven mode <latency,initiation>
-trace_opcode_latency_initiation_sfu                 20,8 # Opcode latencies and initiation for sfu in trace driven mode <latency,initiation>
-trace_opcode_latency_initiation_tensor                  2,2 # Opcode latencies and initiation for tensor in trace driven mode <latency,initiation>
-trace_opcode_latency_initiation_spec_op_1                  4,4 # specialized unit config <latency,initiation>
-trace_opcode_latency_initiation_spec_op_2                200,4 # specialized unit config <latency,initiation>
-trace_opcode_latency_initiation_spec_op_3                  2,2 # specialized unit config <latency,initiation>
-trace_opcode_latency_initiation_spec_op_4                  4,4 # specialized unit config <latency,initiation>
-trace_opcode_latency_initiation_spec_op_5                  4,4 # specialized unit config <latency,initiation>
-trace_opcode_latency_initiation_spec_op_6                  4,4 # specialized unit config <latency,initiation>
-trace_opcode_latency_initiation_spec_op_7                  4,4 # specialized unit config <latency,initiation>
-trace_opcode_latency_initiation_spec_op_8                  4,4 # specialized unit config <latency,initiation>
DRAM Timing Options:
nbk                                    16 # number of banks
CCD                                     1 # column to column delay
RRD                                     3 # minimal delay between activation of rows in different banks
RCD                                    12 # row to column delay
RAS                                    28 # time needed to activate row
RP                                     12 # time needed to precharge (deactivate) row
RC                                     40 # row cycle time
CDLR                                    3 # switching from write to read (changes tWTR)
WR                                     10 # last data-in to row precharge
CL                                     12 # CAS latency
WL                                      2 # Write latency
nbkgrp                                  4 # number of bank groups
CCDL                                    2 # column to column delay between accesses to different bank groups
RTPL                                    3 # read to precharge delay between accesses to different bank groups
Total number of memory sub partition = 64
addr_dec_mask[CHIP]  = 0000000000001f00 	high:13 low:8
addr_dec_mask[BK]    = 00000000000e2000 	high:20 low:13
addr_dec_mask[ROW]   = 00000001fff00000 	high:33 low:20
addr_dec_mask[COL]   = 000000000001c0ff 	high:17 low:0
addr_dec_mask[BURST] = 000000000000001f 	high:5 low:0
sub_partition_id_mask = 0000000000002000
GPGPU-Sim uArch: clock freqs: 1447000000.000000:1447000000.000000:1447000000.000000:850000000.000000
GPGPU-Sim uArch: clock periods: 0.00000000069108500346:0.00000000069108500346:0.00000000069108500346:0.00000000117647058824
*** Initializing Memory Statistics ***
GPGPU-Sim uArch: performance model initialization complete.
launching memcpy command : MemcpyHtoD,0x00007f70ad700000,112
Processing kernel /nobackup/spati/accelsim/traces/hw_run/deepbench/11.0/gemm_bench-tencore/inference_half_35_1500_2560_0_0/traces/kernel-1.traceg
-kernel name = _Z20generate_seed_pseudoyyy14curandOrderingP17curandStateXORWOWPj
-kernel id = 1
-grid dim = (64,1,1)
-block dim = (64,1,1)
-shmem = 0
-nregs = 48
-binary version = 70
-cuda stream id = 0
-shmem base_addr = 0x00007f70e2000000
-local mem base_addr = 0x00007f70e4000000
-nvbit version = 1.4
-accelsim tracer version = 3
Header info loaded for kernel command : /nobackup/spati/accelsim/traces/hw_run/deepbench/11.0/gemm_bench-tencore/inference_half_35_1500_2560_0_0/traces/kernel-1.traceg
Processing kernel /nobackup/spati/accelsim/traces/hw_run/deepbench/11.0/gemm_bench-tencore/inference_half_35_1500_2560_0_0/traces/kernel-2.traceg
-kernel name = _Z13gen_sequencedI17curandStateXORWOWfiXadL_Z21curand_uniform_noargsIS0_EfPT_iEE10rng_configIS0_L14curandOrdering101EEEvS3_PT0_mmT1_
-kernel id = 2
-grid dim = (64,1,1)
-block dim = (64,1,1)
-shmem = 0
-nregs = 32
-binary version = 70
-cuda stream id = 0
-shmem base_addr = 0x00007f70e2000000
-local mem base_addr = 0x00007f70e4000000
-nvbit version = 1.4
-accelsim tracer version = 3
Header info loaded for kernel command : /nobackup/spati/accelsim/traces/hw_run/deepbench/11.0/gemm_bench-tencore/inference_half_35_1500_2560_0_0/traces/kernel-2.traceg
Processing kernel /nobackup/spati/accelsim/traces/hw_run/deepbench/11.0/gemm_bench-tencore/inference_half_35_1500_2560_0_0/traces/kernel-3.traceg
-kernel name = _ZN6thrust8cuda_cub4core13_kernel_agentINS0_14__parallel_for16ParallelForAgentINS0_11__transform17unary_transform_fINS_10device_ptrIfEENS7_ItEENS5_14no_stencil_tagENS_8identityIfEENS5_21always_true_predicateEEElEESE_lEEvT0_T1_
-kernel id = 3
-grid dim = (175,1,1)
-block dim = (256,1,1)
-shmem = 0
-nregs = 12
-binary version = 70
-cuda stream id = 1
-shmem base_addr = 0x00007f70e2000000
-local mem base_addr = 0x00007f70e4000000
-nvbit version = 1.4
-accelsim tracer version = 3
Header info loaded for kernel command : /nobackup/spati/accelsim/traces/hw_run/deepbench/11.0/gemm_bench-tencore/inference_half_35_1500_2560_0_0/traces/kernel-3.traceg
Processing kernel /nobackup/spati/accelsim/traces/hw_run/deepbench/11.0/gemm_bench-tencore/inference_half_35_1500_2560_0_0/traces/kernel-4.traceg
-kernel name = _Z13gen_sequencedI17curandStateXORWOWfiXadL_Z21curand_uniform_noargsIS0_EfPT_iEE10rng_configIS0_L14curandOrdering101EEEvS3_PT0_mmT1_
-kernel id = 4
-grid dim = (64,1,1)
-block dim = (64,1,1)
-shmem = 0
-nregs = 32
-binary version = 70
-cuda stream id = 0
-shmem base_addr = 0x00007f70e2000000
-local mem base_addr = 0x00007f70e4000000
-nvbit version = 1.4
-accelsim tracer version = 3
Header info loaded for kernel command : /nobackup/spati/accelsim/traces/hw_run/deepbench/11.0/gemm_bench-tencore/inference_half_35_1500_2560_0_0/traces/kernel-4.traceg
Processing kernel /nobackup/spati/accelsim/traces/hw_run/deepbench/11.0/gemm_bench-tencore/inference_half_35_1500_2560_0_0/traces/kernel-5.traceg
-kernel name = _ZN6thrust8cuda_cub4core13_kernel_agentINS0_14__parallel_for16ParallelForAgentINS0_11__transform17unary_transform_fINS_10device_ptrIfEENS7_ItEENS5_14no_stencil_tagENS_8identityIfEENS5_21always_true_predicateEEElEESE_lEEvT0_T1_
-kernel id = 5
-grid dim = (7500,1,1)
-block dim = (256,1,1)
-shmem = 0
-nregs = 12
-binary version = 70
-cuda stream id = 1
-shmem base_addr = 0x00007f70e2000000
-local mem base_addr = 0x00007f70e4000000
-nvbit version = 1.4
-accelsim tracer version = 3
Header info loaded for kernel command : /nobackup/spati/accelsim/traces/hw_run/deepbench/11.0/gemm_bench-tencore/inference_half_35_1500_2560_0_0/traces/kernel-5.traceg
Processing kernel /nobackup/spati/accelsim/traces/hw_run/deepbench/11.0/gemm_bench-tencore/inference_half_35_1500_2560_0_0/traces/kernel-6.traceg
-kernel name = _ZN6thrust8cuda_cub4core13_kernel_agentINS0_14__parallel_for16ParallelForAgentINS0_6__fill7functorINS_10device_ptrItEEfEElEES9_lEEvT0_T1_
-kernel id = 6
-grid dim = (103,1,1)
-block dim = (256,1,1)
-shmem = 0
-nregs = 12
-binary version = 70
-cuda stream id = 1
-shmem base_addr = 0x00007f70e2000000
-local mem base_addr = 0x00007f70e4000000
-nvbit version = 1.4
-accelsim tracer version = 3
Header info loaded for kernel command : /nobackup/spati/accelsim/traces/hw_run/deepbench/11.0/gemm_bench-tencore/inference_half_35_1500_2560_0_0/traces/kernel-6.traceg
Processing kernel /nobackup/spati/accelsim/traces/hw_run/deepbench/11.0/gemm_bench-tencore/inference_half_35_1500_2560_0_0/traces/kernel-7.traceg
-kernel name = _ZN7cutlass6KernelI44cutlass_70_tensorop_h884gemm_64x64_nn_align1EEvNT_6ParamsE
-kernel id = 7
-grid dim = (24,1,11)
-block dim = (128,1,1)
-shmem = 16384
-nregs = 134
-binary version = 70
-cuda stream id = 0
-shmem base_addr = 0x00007f70e2000000
-local mem base_addr = 0x00007f70e4000000
-nvbit version = 1.4
-accelsim tracer version = 3
Header info loaded for kernel command : /nobackup/spati/accelsim/traces/hw_run/deepbench/11.0/gemm_bench-tencore/inference_half_35_1500_2560_0_0/traces/kernel-7.traceg
Processing kernel /nobackup/spati/accelsim/traces/hw_run/deepbench/11.0/gemm_bench-tencore/inference_half_35_1500_2560_0_0/traces/kernel-8.traceg
-kernel name = _Z19splitKreduce_kernelI6__halfS0_S0_Ev18cublasSplitKParamsIT1_EPKT_PKT0_PS7_PKS2_SC_
-kernel id = 8
-grid dim = (411,1,1)
-block dim = (128,1,1)
-shmem = 0
-nregs = 32
-binary version = 70
-cuda stream id = 0
-shmem base_addr = 0x00007f70e2000000
-local mem base_addr = 0x00007f70e4000000
-nvbit version = 1.4
-accelsim tracer version = 3
Header info loaded for kernel command : /nobackup/spati/accelsim/traces/hw_run/deepbench/11.0/gemm_bench-tencore/inference_half_35_1500_2560_0_0/traces/kernel-8.traceg
Processing kernel /nobackup/spati/accelsim/traces/hw_run/deepbench/11.0/gemm_bench-tencore/inference_half_35_1500_2560_0_0/traces/kernel-9.traceg
-kernel name = _ZN7cutlass6KernelI44cutlass_70_tensorop_h884gemm_64x64_nn_align1EEvNT_6ParamsE
-kernel id = 9
-grid dim = (24,1,11)
-block dim = (128,1,1)
-shmem = 16384
-nregs = 134
-binary version = 70
-cuda stream id = 0
-shmem base_addr = 0x00007f70e2000000
-local mem base_addr = 0x00007f70e4000000
-nvbit version = 1.4
-accelsim tracer version = 3
Header info loaded for kernel command : /nobackup/spati/accelsim/traces/hw_run/deepbench/11.0/gemm_bench-tencore/inference_half_35_1500_2560_0_0/traces/kernel-9.traceg
Processing kernel /nobackup/spati/accelsim/traces/hw_run/deepbench/11.0/gemm_bench-tencore/inference_half_35_1500_2560_0_0/traces/kernel-10.traceg
-kernel name = _Z19splitKreduce_kernelI6__halfS0_S0_Ev18cublasSplitKParamsIT1_EPKT_PKT0_PS7_PKS2_SC_
-kernel id = 10
-grid dim = (411,1,1)
-block dim = (128,1,1)
-shmem = 0
-nregs = 32
-binary version = 70
-cuda stream id = 0
-shmem base_addr = 0x00007f70e2000000
-local mem base_addr = 0x00007f70e4000000
-nvbit version = 1.4
-accelsim tracer version = 3
Header info loaded for kernel command : /nobackup/spati/accelsim/traces/hw_run/deepbench/11.0/gemm_bench-tencore/inference_half_35_1500_2560_0_0/traces/kernel-10.traceg
launching kernel name: _Z20generate_seed_pseudoyyy14curandOrderingP17curandStateXORWOWPj uid: 1 cuda_stream_id: 0
gpgpu_sim::launch: kernelID = 1, streamID = 0
gpgpu_sim::launch start_cycle=0, end_cycle=0
GPGPU-Sim uArch: CTA/core = 21, limited by: regs
GPGPU-Sim: Reconfigure L1 cache to 128KB
thread block = 0,0,0
thread block = 1,0,0
thread block = 2,0,0
thread block = 3,0,0
thread block = 4,0,0
thread block = 5,0,0
thread block = 6,0,0
thread block = 7,0,0
thread block = 8,0,0
thread block = 9,0,0
thread block = 10,0,0
thread block = 11,0,0
thread block = 12,0,0
thread block = 13,0,0
thread block = 14,0,0
thread block = 15,0,0
thread block = 16,0,0
thread block = 17,0,0
thread block = 18,0,0
thread block = 19,0,0
thread block = 20,0,0
thread block = 21,0,0
thread block = 22,0,0
thread block = 23,0,0
thread block = 24,0,0
thread block = 25,0,0
thread block = 26,0,0
thread block = 27,0,0
thread block = 28,0,0
thread block = 29,0,0
thread block = 30,0,0
thread block = 31,0,0
thread block = 32,0,0
thread block = 33,0,0
thread block = 34,0,0
thread block = 35,0,0
thread block = 36,0,0
thread block = 37,0,0
thread block = 38,0,0
thread block = 39,0,0
thread block = 40,0,0
thread block = 41,0,0
thread block = 42,0,0
thread block = 43,0,0
thread block = 44,0,0
thread block = 45,0,0
thread block = 46,0,0
thread block = 47,0,0
thread block = 48,0,0
thread block = 49,0,0
thread block = 50,0,0
thread block = 51,0,0
thread block = 52,0,0
thread block = 53,0,0
thread block = 54,0,0
thread block = 55,0,0
thread block = 56,0,0
thread block = 57,0,0
thread block = 58,0,0
thread block = 59,0,0
thread block = 60,0,0
thread block = 61,0,0
thread block = 62,0,0
thread block = 63,0,0
gpgpu_sim::set_kernel_done start_cycle=0, end_cycle=734227
Destroy streams for kernel 1: size 0
kernel_name = _Z20generate_seed_pseudoyyy14curandOrderingP17curandStateXORWOWPj 
kernel_launch_uid = 1 
gpu_sim_cycle = 734228
gpu_sim_insn = 111068054
gpu_ipc =     151.2719
gpu_tot_sim_cycle = 734228
gpu_tot_sim_insn = 111068054
gpu_tot_ipc =     151.2719
gpu_tot_issued_cta = 64
gpu_occupancy = 3.0728% 
gpu_tot_occupancy = 3.0728% 
max_total_param_size = 0
gpu_stall_dramfull = 38169
gpu_stall_icnt2sh    = 0
partiton_level_parallism =      20.9427
partiton_level_parallism_total  =      20.9427
partiton_level_parallism_util =      23.4128
partiton_level_parallism_util_total  =      23.4128
L2_BW  =     969.7287 GB/Sec
L2_BW_total  =     969.7287 GB/Sec
gpu_total_sim_rate=74742

========= Core cache stats =========
L1I_cache:
	L1I_total_cache_accesses = 0
	L1I_total_cache_misses = 0
	L1I_total_cache_pending_hits = 0
	L1I_total_cache_reservation_fails = 0
L1D_cache:
	L1D_cache_core[0]: Access = 167579, Miss = 684, Miss_rate = 0.004, Pending_hits = 363, Reservation_fails = 32332
	L1D_cache_core[1]: Access = 203390, Miss = 784, Miss_rate = 0.004, Pending_hits = 371, Reservation_fails = 36815
	L1D_cache_core[2]: Access = 238867, Miss = 784, Miss_rate = 0.003, Pending_hits = 363, Reservation_fails = 37856
	L1D_cache_core[3]: Access = 274111, Miss = 784, Miss_rate = 0.003, Pending_hits = 362, Reservation_fails = 41026
	L1D_cache_core[4]: Access = 203390, Miss = 784, Miss_rate = 0.004, Pending_hits = 363, Reservation_fails = 35057
	L1D_cache_core[5]: Access = 238867, Miss = 884, Miss_rate = 0.004, Pending_hits = 371, Reservation_fails = 37553
	L1D_cache_core[6]: Access = 274111, Miss = 884, Miss_rate = 0.003, Pending_hits = 363, Reservation_fails = 40542
	L1D_cache_core[7]: Access = 309425, Miss = 884, Miss_rate = 0.003, Pending_hits = 363, Reservation_fails = 43926
	L1D_cache_core[8]: Access = 239122, Miss = 784, Miss_rate = 0.003, Pending_hits = 363, Reservation_fails = 37499
	L1D_cache_core[9]: Access = 274202, Miss = 884, Miss_rate = 0.003, Pending_hits = 371, Reservation_fails = 42883
	L1D_cache_core[10]: Access = 309355, Miss = 886, Miss_rate = 0.003, Pending_hits = 365, Reservation_fails = 42547
	L1D_cache_core[11]: Access = 345146, Miss = 884, Miss_rate = 0.003, Pending_hits = 362, Reservation_fails = 46292
	L1D_cache_core[12]: Access = 274820, Miss = 784, Miss_rate = 0.003, Pending_hits = 362, Reservation_fails = 40915
	L1D_cache_core[13]: Access = 309657, Miss = 884, Miss_rate = 0.003, Pending_hits = 371, Reservation_fails = 43438
	L1D_cache_core[14]: Access = 344917, Miss = 884, Miss_rate = 0.003, Pending_hits = 371, Reservation_fails = 45636
	L1D_cache_core[15]: Access = 380800, Miss = 884, Miss_rate = 0.002, Pending_hits = 363, Reservation_fails = 49328
	L1D_cache_core[16]: Access = 203390, Miss = 784, Miss_rate = 0.004, Pending_hits = 363, Reservation_fails = 34636
	L1D_cache_core[17]: Access = 238867, Miss = 884, Miss_rate = 0.004, Pending_hits = 371, Reservation_fails = 38079
	L1D_cache_core[18]: Access = 274111, Miss = 884, Miss_rate = 0.003, Pending_hits = 371, Reservation_fails = 40566
	L1D_cache_core[19]: Access = 309425, Miss = 884, Miss_rate = 0.003, Pending_hits = 363, Reservation_fails = 45203
	L1D_cache_core[20]: Access = 239122, Miss = 884, Miss_rate = 0.004, Pending_hits = 372, Reservation_fails = 38237
	L1D_cache_core[21]: Access = 274202, Miss = 984, Miss_rate = 0.004, Pending_hits = 362, Reservation_fails = 39972
	L1D_cache_core[22]: Access = 309355, Miss = 984, Miss_rate = 0.003, Pending_hits = 372, Reservation_fails = 44136
	L1D_cache_core[23]: Access = 345146, Miss = 984, Miss_rate = 0.003, Pending_hits = 370, Reservation_fails = 46229
	L1D_cache_core[24]: Access = 274820, Miss = 884, Miss_rate = 0.003, Pending_hits = 363, Reservation_fails = 42495
	L1D_cache_core[25]: Access = 309657, Miss = 984, Miss_rate = 0.003, Pending_hits = 371, Reservation_fails = 43333
	L1D_cache_core[26]: Access = 344917, Miss = 984, Miss_rate = 0.003, Pending_hits = 363, Reservation_fails = 47679
	L1D_cache_core[27]: Access = 380800, Miss = 984, Miss_rate = 0.003, Pending_hits = 364, Reservation_fails = 50483
	L1D_cache_core[28]: Access = 310202, Miss = 884, Miss_rate = 0.003, Pending_hits = 364, Reservation_fails = 43219
	L1D_cache_core[29]: Access = 345015, Miss = 984, Miss_rate = 0.003, Pending_hits = 372, Reservation_fails = 49012
	L1D_cache_core[30]: Access = 380426, Miss = 984, Miss_rate = 0.003, Pending_hits = 371, Reservation_fails = 50569
	L1D_cache_core[31]: Access = 416558, Miss = 984, Miss_rate = 0.002, Pending_hits = 370, Reservation_fails = 52590
	L1D_cache_core[32]: Access = 238726, Miss = 784, Miss_rate = 0.003, Pending_hits = 363, Reservation_fails = 39458
	L1D_cache_core[33]: Access = 274013, Miss = 886, Miss_rate = 0.003, Pending_hits = 364, Reservation_fails = 41059
	L1D_cache_core[34]: Access = 309287, Miss = 884, Miss_rate = 0.003, Pending_hits = 363, Reservation_fails = 44640
	L1D_cache_core[35]: Access = 344926, Miss = 884, Miss_rate = 0.003, Pending_hits = 363, Reservation_fails = 46515
	L1D_cache_core[36]: Access = 274225, Miss = 884, Miss_rate = 0.003, Pending_hits = 362, Reservation_fails = 42866
	L1D_cache_core[37]: Access = 309802, Miss = 984, Miss_rate = 0.003, Pending_hits = 363, Reservation_fails = 43005
	L1D_cache_core[38]: Access = 344961, Miss = 984, Miss_rate = 0.003, Pending_hits = 363, Reservation_fails = 47630
	L1D_cache_core[39]: Access = 380541, Miss = 984, Miss_rate = 0.003, Pending_hits = 364, Reservation_fails = 48801
	L1D_cache_core[40]: Access = 310627, Miss = 884, Miss_rate = 0.003, Pending_hits = 371, Reservation_fails = 46134
	L1D_cache_core[41]: Access = 345416, Miss = 984, Miss_rate = 0.003, Pending_hits = 363, Reservation_fails = 47017
	L1D_cache_core[42]: Access = 380339, Miss = 984, Miss_rate = 0.003, Pending_hits = 371, Reservation_fails = 50216
	L1D_cache_core[43]: Access = 416099, Miss = 984, Miss_rate = 0.002, Pending_hits = 363, Reservation_fails = 53902
	L1D_cache_core[44]: Access = 345738, Miss = 884, Miss_rate = 0.003, Pending_hits = 362, Reservation_fails = 46175
	L1D_cache_core[45]: Access = 380397, Miss = 984, Miss_rate = 0.003, Pending_hits = 362, Reservation_fails = 50205
	L1D_cache_core[46]: Access = 416177, Miss = 984, Miss_rate = 0.002, Pending_hits = 362, Reservation_fails = 51186
	L1D_cache_core[47]: Access = 451292, Miss = 984, Miss_rate = 0.002, Pending_hits = 364, Reservation_fails = 53945
	L1D_cache_core[48]: Access = 274501, Miss = 784, Miss_rate = 0.003, Pending_hits = 372, Reservation_fails = 40299
	L1D_cache_core[49]: Access = 309382, Miss = 884, Miss_rate = 0.003, Pending_hits = 363, Reservation_fails = 45577
	L1D_cache_core[50]: Access = 344725, Miss = 884, Miss_rate = 0.003, Pending_hits = 362, Reservation_fails = 46674
	L1D_cache_core[51]: Access = 379887, Miss = 886, Miss_rate = 0.002, Pending_hits = 373, Reservation_fails = 49302
	L1D_cache_core[52]: Access = 310152, Miss = 884, Miss_rate = 0.003, Pending_hits = 363, Reservation_fails = 44886
	L1D_cache_core[53]: Access = 345738, Miss = 984, Miss_rate = 0.003, Pending_hits = 364, Reservation_fails = 49224
	L1D_cache_core[54]: Access = 380575, Miss = 984, Miss_rate = 0.003, Pending_hits = 363, Reservation_fails = 49118
	L1D_cache_core[55]: Access = 416510, Miss = 984, Miss_rate = 0.002, Pending_hits = 363, Reservation_fails = 53462
	L1D_cache_core[56]: Access = 345591, Miss = 884, Miss_rate = 0.003, Pending_hits = 372, Reservation_fails = 46655
	L1D_cache_core[57]: Access = 380511, Miss = 984, Miss_rate = 0.003, Pending_hits = 364, Reservation_fails = 50366
	L1D_cache_core[58]: Access = 415679, Miss = 984, Miss_rate = 0.002, Pending_hits = 363, Reservation_fails = 51001
	L1D_cache_core[59]: Access = 452064, Miss = 984, Miss_rate = 0.002, Pending_hits = 364, Reservation_fails = 54872
	L1D_cache_core[60]: Access = 380899, Miss = 884, Miss_rate = 0.002, Pending_hits = 363, Reservation_fails = 49007
	L1D_cache_core[61]: Access = 415396, Miss = 984, Miss_rate = 0.002, Pending_hits = 363, Reservation_fails = 52137
	L1D_cache_core[62]: Access = 451816, Miss = 984, Miss_rate = 0.002, Pending_hits = 364, Reservation_fails = 56940
	L1D_cache_core[63]: Access = 486736, Miss = 984, Miss_rate = 0.002, Pending_hits = 363, Reservation_fails = 59058
	L1D_cache_core[64]: Access = 0, Miss = 0, Miss_rate = -nan, Pending_hits = 0, Reservation_fails = 0
	L1D_cache_core[65]: Access = 0, Miss = 0, Miss_rate = -nan, Pending_hits = 0, Reservation_fails = 0
	L1D_cache_core[66]: Access = 0, Miss = 0, Miss_rate = -nan, Pending_hits = 0, Reservation_fails = 0
	L1D_cache_core[67]: Access = 0, Miss = 0, Miss_rate = -nan, Pending_hits = 0, Reservation_fails = 0
	L1D_cache_core[68]: Access = 0, Miss = 0, Miss_rate = -nan, Pending_hits = 0, Reservation_fails = 0
	L1D_cache_core[69]: Access = 0, Miss = 0, Miss_rate = -nan, Pending_hits = 0, Reservation_fails = 0
	L1D_cache_core[70]: Access = 0, Miss = 0, Miss_rate = -nan, Pending_hits = 0, Reservation_fails = 0
	L1D_cache_core[71]: Access = 0, Miss = 0, Miss_rate = -nan, Pending_hits = 0, Reservation_fails = 0
	L1D_cache_core[72]: Access = 0, Miss = 0, Miss_rate = -nan, Pending_hits = 0, Reservation_fails = 0
	L1D_cache_core[73]: Access = 0, Miss = 0, Miss_rate = -nan, Pending_hits = 0, Reservation_fails = 0
	L1D_cache_core[74]: Access = 0, Miss = 0, Miss_rate = -nan, Pending_hits = 0, Reservation_fails = 0
	L1D_cache_core[75]: Access = 0, Miss = 0, Miss_rate = -nan, Pending_hits = 0, Reservation_fails = 0
	L1D_cache_core[76]: Access = 0, Miss = 0, Miss_rate = -nan, Pending_hits = 0, Reservation_fails = 0
	L1D_cache_core[77]: Access = 0, Miss = 0, Miss_rate = -nan, Pending_hits = 0, Reservation_fails = 0
	L1D_cache_core[78]: Access = 0, Miss = 0, Miss_rate = -nan, Pending_hits = 0, Reservation_fails = 0
	L1D_cache_core[79]: Access = 0, Miss = 0, Miss_rate = -nan, Pending_hits = 0, Reservation_fails = 0
	L1D_total_cache_accesses = 20956500
	L1D_total_cache_misses = 58182
	L1D_total_cache_miss_rate = 0.0028
	L1D_total_cache_pending_hits = 23391
	L1D_total_cache_reservation_fails = 2911415
	L1D_cache_data_port_util = 0.588
	L1D_cache_fill_port_util = 0.001
L1C_cache:
	L1C_total_cache_accesses = 0
	L1C_total_cache_misses = 0
	L1C_total_cache_pending_hits = 0
	L1C_total_cache_reservation_fails = 0
L1T_cache:
	L1T_total_cache_accesses = 0
	L1T_total_cache_misses = 0
	L1T_total_cache_pending_hits = 0
	L1T_total_cache_reservation_fails = 0

Total_core_cache_stats:
	Total_core_cache_stats_breakdown[Stream_0][GLOBAL_ACC_R][HIT] = 5560679
	Total_core_cache_stats_breakdown[Stream_0][GLOBAL_ACC_R][HIT_RESERVED] = 19137
	Total_core_cache_stats_breakdown[Stream_0][GLOBAL_ACC_R][MISS] = 8400
	Total_core_cache_stats_breakdown[Stream_0][GLOBAL_ACC_R][RESERVATION_FAIL] = 119023
	Total_core_cache_stats_breakdown[Stream_0][GLOBAL_ACC_R][SECTOR_MISS] = 35447
	Total_core_cache_stats_breakdown[Stream_0][GLOBAL_ACC_R][MSHR_HIT] = 19137
	Total_core_cache_stats_breakdown[Stream_0][LOCAL_ACC_R][HIT] = 0
	Total_core_cache_stats_breakdown[Stream_0][LOCAL_ACC_R][HIT_RESERVED] = 0
	Total_core_cache_stats_breakdown[Stream_0][LOCAL_ACC_R][MISS] = 0
	Total_core_cache_stats_breakdown[Stream_0][LOCAL_ACC_R][RESERVATION_FAIL] = 0
	Total_core_cache_stats_breakdown[Stream_0][LOCAL_ACC_R][SECTOR_MISS] = 0
	Total_core_cache_stats_breakdown[Stream_0][LOCAL_ACC_R][MSHR_HIT] = 0
	Total_core_cache_stats_breakdown[Stream_0][CONST_ACC_R][HIT] = 0
	Total_core_cache_stats_breakdown[Stream_0][CONST_ACC_R][HIT_RESERVED] = 0
	Total_core_cache_stats_breakdown[Stream_0][CONST_ACC_R][MISS] = 0
	Total_core_cache_stats_breakdown[Stream_0][CONST_ACC_R][RESERVATION_FAIL] = 0
	Total_core_cache_stats_breakdown[Stream_0][CONST_ACC_R][SECTOR_MISS] = 0
	Total_core_cache_stats_breakdown[Stream_0][CONST_ACC_R][MSHR_HIT] = 0
	Total_core_cache_stats_breakdown[Stream_0][TEXTURE_ACC_R][HIT] = 0
	Total_core_cache_stats_breakdown[Stream_0][TEXTURE_ACC_R][HIT_RESERVED] = 0
	Total_core_cache_stats_breakdown[Stream_0][TEXTURE_ACC_R][MISS] = 0
	Total_core_cache_stats_breakdown[Stream_0][TEXTURE_ACC_R][RESERVATION_FAIL] = 0
	Total_core_cache_stats_breakdown[Stream_0][TEXTURE_ACC_R][SECTOR_MISS] = 0
	Total_core_cache_stats_breakdown[Stream_0][TEXTURE_ACC_R][MSHR_HIT] = 0
	Total_core_cache_stats_breakdown[Stream_0][GLOBAL_ACC_W][HIT] = 15314248
	Total_core_cache_stats_breakdown[Stream_0][GLOBAL_ACC_W][HIT_RESERVED] = 4254
	Total_core_cache_stats_breakdown[Stream_0][GLOBAL_ACC_W][MISS] = 6656
	Total_core_cache_stats_breakdown[Stream_0][GLOBAL_ACC_W][RESERVATION_FAIL] = 2792392
	Total_core_cache_stats_breakdown[Stream_0][GLOBAL_ACC_W][SECTOR_MISS] = 7679
	Total_core_cache_stats_breakdown[Stream_0][GLOBAL_ACC_W][MSHR_HIT] = 0
	Total_core_cache_stats_breakdown[Stream_0][LOCAL_ACC_W][HIT] = 0
	Total_core_cache_stats_breakdown[Stream_0][LOCAL_ACC_W][HIT_RESERVED] = 0
	Total_core_cache_stats_breakdown[Stream_0][LOCAL_ACC_W][MISS] = 0
	Total_core_cache_stats_breakdown[Stream_0][LOCAL_ACC_W][RESERVATION_FAIL] = 0
	Total_core_cache_stats_breakdown[Stream_0][LOCAL_ACC_W][SECTOR_MISS] = 0
	Total_core_cache_stats_breakdown[Stream_0][LOCAL_ACC_W][MSHR_HIT] = 0
	Total_core_cache_stats_breakdown[Stream_0][L1_WRBK_ACC][HIT] = 0
	Total_core_cache_stats_breakdown[Stream_0][L1_WRBK_ACC][HIT_RESERVED] = 0
	Total_core_cache_stats_breakdown[Stream_0][L1_WRBK_ACC][MISS] = 0
	Total_core_cache_stats_breakdown[Stream_0][L1_WRBK_ACC][RESERVATION_FAIL] = 0
	Total_core_cache_stats_breakdown[Stream_0][L1_WRBK_ACC][SECTOR_MISS] = 0
	Total_core_cache_stats_breakdown[Stream_0][L1_WRBK_ACC][MSHR_HIT] = 0
	Total_core_cache_stats_breakdown[Stream_0][L2_WRBK_ACC][HIT] = 0
	Total_core_cache_stats_breakdown[Stream_0][L2_WRBK_ACC][HIT_RESERVED] = 0
	Total_core_cache_stats_breakdown[Stream_0][L2_WRBK_ACC][MISS] = 0
	Total_core_cache_stats_breakdown[Stream_0][L2_WRBK_ACC][RESERVATION_FAIL] = 0
	Total_core_cache_stats_breakdown[Stream_0][L2_WRBK_ACC][SECTOR_MISS] = 0
	Total_core_cache_stats_breakdown[Stream_0][L2_WRBK_ACC][MSHR_HIT] = 0
	Total_core_cache_stats_breakdown[Stream_0][INST_ACC_R][HIT] = 0
	Total_core_cache_stats_breakdown[Stream_0][INST_ACC_R][HIT_RESERVED] = 0
	Total_core_cache_stats_breakdown[Stream_0][INST_ACC_R][MISS] = 0
	Total_core_cache_stats_breakdown[Stream_0][INST_ACC_R][RESERVATION_FAIL] = 0
	Total_core_cache_stats_breakdown[Stream_0][INST_ACC_R][SECTOR_MISS] = 0
	Total_core_cache_stats_breakdown[Stream_0][INST_ACC_R][MSHR_HIT] = 0
	Total_core_cache_stats_breakdown[Stream_0][L1_WR_ALLOC_R][HIT] = 0
	Total_core_cache_stats_breakdown[Stream_0][L1_WR_ALLOC_R][HIT_RESERVED] = 0
	Total_core_cache_stats_breakdown[Stream_0][L1_WR_ALLOC_R][MISS] = 0
	Total_core_cache_stats_breakdown[Stream_0][L1_WR_ALLOC_R][RESERVATION_FAIL] = 0
	Total_core_cache_stats_breakdown[Stream_0][L1_WR_ALLOC_R][SECTOR_MISS] = 0
	Total_core_cache_stats_breakdown[Stream_0][L1_WR_ALLOC_R][MSHR_HIT] = 0
	Total_core_cache_stats_breakdown[Stream_0][L2_WR_ALLOC_R][HIT] = 0
	Total_core_cache_stats_breakdown[Stream_0][L2_WR_ALLOC_R][HIT_RESERVED] = 0
	Total_core_cache_stats_breakdown[Stream_0][L2_WR_ALLOC_R][MISS] = 0
	Total_core_cache_stats_breakdown[Stream_0][L2_WR_ALLOC_R][RESERVATION_FAIL] = 0
	Total_core_cache_stats_breakdown[Stream_0][L2_WR_ALLOC_R][SECTOR_MISS] = 0
	Total_core_cache_stats_breakdown[Stream_0][L2_WR_ALLOC_R][MSHR_HIT] = 0
	Total_core_cache_stats_breakdown[Stream_0][GLOBAL_ACC_R][TOTAL_ACCESS] = 5623663
	Total_core_cache_stats_breakdown[Stream_0][GLOBAL_ACC_W][TOTAL_ACCESS] = 15332837

Total_core_cache_fail_stats:
	Total_core_cache_fail_stats_breakdown[Stream_0][GLOBAL_ACC_R][MISS_QUEUE_FULL] = 119023
	Total_core_cache_fail_stats_breakdown[Stream_0][GLOBAL_ACC_W][MISS_QUEUE_FULL] = 2792392
ctas_completed 64, Shader 0 warp_id issue ditsribution:
warp_id:
0, 1, 
distro:
27444, 36541, 
gpgpu_n_tot_thrd_icount = 111068054
gpgpu_n_tot_w_icount = 6722860
gpgpu_n_stall_shd_mem = 6354367
gpgpu_n_mem_read_local = 0
gpgpu_n_mem_write_local = 0
gpgpu_n_mem_read_global = 43847
gpgpu_n_mem_write_global = 15332837
gpgpu_n_mem_texture = 0
gpgpu_n_mem_const = 0
gpgpu_n_load_insn  = 19365588
gpgpu_n_store_insn = 15332837
gpgpu_n_shmem_insn = 0
gpgpu_n_sstarr_insn = 0
gpgpu_n_tex_insn = 0
gpgpu_n_const_mem_insn = 0
gpgpu_n_param_mem_insn = 0
gpgpu_n_shmem_bkconflict = 0
gpgpu_n_cache_bkconflict = 0
gpgpu_n_intrawarp_mshr_merge = 0
gpgpu_n_cmem_portconflict = 0
gpgpu_stall_shd_mem[c_mem][resource_stall] = 0
gpgpu_stall_shd_mem[s_mem][bk_conf] = 0
gpgpu_stall_shd_mem[gl_mem][resource_stall] = 5017760
gpgpu_stall_shd_mem[gl_mem][coal_stall] = 1336607
gpgpu_stall_shd_mem[gl_mem][data_port_stall] = 0
gpu_reg_bank_conflict_stalls = 0
Warp Occupancy Distribution:
Stall:488479	W0_Idle:72218129	W0_Scoreboard:62688886	W1:2	W2:89728	W3:4801	W4:252802	W5:35440	W6:295898	W7:62924	W8:782843	W9:84267	W10:96938	W11:71638	W12:359860	W13:146735	W14:234440	W15:220458	W16:1106277	W17:215112	W18:362467	W19:140714	W20:137723	W21:49976	W22:58590	W23:12543	W24:623957	W25:1586	W26:5842	W27:22	W28:3212	W29:0	W30:0	W31:14	W32:1083821
single_issue_nums: WS0:3070263	WS1:3652597	WS2:0	WS3:0	
dual_issue_nums: WS0:0	WS1:0	WS2:0	WS3:0	
traffic_breakdown_coretomem[GLOBAL_ACC_R] = 350776 {8:43847,}
traffic_breakdown_coretomem[GLOBAL_ACC_W] = 613313480 {40:15332837,}
traffic_breakdown_memtocore[GLOBAL_ACC_R] = 1753880 {40:43847,}
traffic_breakdown_memtocore[GLOBAL_ACC_W] = 122662696 {8:15332837,}
maxmflatency = 1130 
max_icnt2mem_latency = 708 
maxmrqlatency = 532 
max_icnt2sh_latency = 319 
averagemflatency = 216 
avg_icnt2mem_latency = 44 
avg_mrq_latency = 22 
avg_icnt2sh_latency = 10 
mrq_lat_table:1539 	4663 	1353 	810 	674 	599 	625 	469 	114 	1 	0 	0 	0 	0 	0 	0 	0 	0 	0 	0 	0 	0 	0 	0 	0 	0 	0 	0 	0 	0 	0 	0 	
dq_lat_table:0 	0 	0 	0 	0 	0 	0 	0 	0 	0 	0 	0 	0 	0 	0 	0 	0 	0 	0 	0 	0 	0 	0 	0 	0 	0 	0 	0 	0 	0 	0 	0 	
mf_lat_table:0 	0 	0 	0 	0 	0 	0 	13690854 	1668030 	17791 	9 	0 	0 	0 	0 	0 	0 	0 	0 	0 	0 	0 	0 	0 	0 	0 	0 	0 	0 	0 	0 	0 	
icnt2mem_lat_table:0 	0 	0 	0 	6788874 	6539643 	1515908 	489965 	40874 	1420 	0 	0 	0 	0 	0 	0 	0 	0 	0 	0 	0 	0 	0 	0 	
icnt2sh_lat_table:0 	5357408 	4116076 	3148766 	1849416 	716997 	157898 	29659 	464 	0 	0 	0 	0 	0 	0 	0 	0 	0 	0 	0 	0 	0 	0 	0 	
mf_lat_pw_table:0 	0 	0 	0 	0 	0 	0 	1368 	90 	0 	0 	0 	0 	0 	0 	0 	0 	0 	0 	0 	0 	0 	0 	0 	0 	0 	0 	0 	0 	0 	0 	0 	
maximum concurrent accesses to same row:
dram[0]:         1         2         1         1         1         1         1         1         2         1        56        56        40        40         1         1 
dram[1]:         1         1         2         1         1         2         3         1         1         2        56        56        40        40         2         1 
dram[2]:         2         1         1         1         1         2         2         1         1         1        56        64        40        40         2         1 
dram[3]:         1         2         2         1         2         1         3         1         2         2        56        64        40        40         2         1 
dram[4]:         1         2         2         1         2         3         1         1         1         1        56        64        40        40         1         1 
dram[5]:         1         1         1         1         1         2         2         2         1         1        56        64        40        40         1         1 
dram[6]:         3         1         1         2         1         1         1         1         1         1        56        64        40        40         1         1 
dram[7]:         3         2         2         1         1         1         1         2         1         1        56        64        40        40         1         2 
dram[8]:         1         1         2         1         1         1         2         1         1         1        56        56        40        40         1         1 
dram[9]:         1         1         1         2         1         1         1         2         2         1        56        56        40        40         1         2 
dram[10]:         2         1         1         2         2         1         1         1         1         1        56        56        40        40         1         1 
dram[11]:         2         1         1         2         1         1         1         1         1         1        56        56        40        40         1         1 
dram[12]:         1         1         1         1         1         1         1         1         2         1        56        56        40        40         1         1 
dram[13]:         1         2         1         2         2         1         1         2         1         1        56        56        40        40         2         1 
dram[14]:         1         1         1         1         1         1         1         1         2         2        56        56        40        40         1         1 
dram[15]:         2         1         1         3         1         2         1         1         1         1        56        56        40        40         2         2 
dram[16]:         1         1         1         1         2         1         1         1         1         2        56        56        40        32         2         1 
dram[17]:         1         1         7         1         1         1         2         1         2         2        56        56        40        32         3         1 
dram[18]:         1         1         1         1         1         2         1         1         1         1        56        56        40        40         1         1 
dram[19]:         1         2         1         2         1         2         1         1         2         1        56        56        40        40         2         1 
dram[20]:         1         2         1         1         1         1         1         2         1         3         0        56        40        32         2         1 
dram[21]:         2         3         3         1         2         2         2         1         2         1        56        56        40        32         1         1 
dram[22]:         1         1         6         1         1         2         1         1         2         1        56        56        40        32         2         1 
dram[23]:         1         1         7         2         1         1         1         1         1         1        56        56        40        32         2         2 
dram[24]:         2         2         8         1         1         2         1         1         2         1        56        56        40        40         1         1 
dram[25]:         1         1         1         1         1         1         2         3         2         1        56        56        40        40         1         1 
dram[26]:         1         1         8         1         1         2         1         1         1         1        56        56        40        40         1         2 
dram[27]:         1         1         6         2         1         1         1         1         1         1        56        56        40        40         1         1 
dram[28]:         1         1         1         2         1         1         1         1         1         1        56        56        40        40         1         2 
dram[29]:         1         1         1         2         1         1         1         1         2         1        56        56        40        40         1         1 
dram[30]:         1         1         7         1         1         2         1         1         1         1        56        56        40        40         1         1 
dram[31]:         1         1         1         1         1         1         1         2         2         2        56        56        40        40         1         1 
maximum service time to same row:
dram[0]:      6939     42266    240776    347486     42612     42409     42483     42293     42235     42576      5632      5634     42366      5654     42193      6905 
dram[1]:     42463     42107    235526    299504      6803     42519     42164     42316     42300     42283      5632     42517      5651     42452     42538     42523 
dram[2]:     42663     42416    208889    316163    192985     42263     42727     42298     42567      7082     42322     42422     42366     42457     42351     42542 
dram[3]:     42645     42321    203140    310533     42475     42534     42550     42578     42566      7055     42564     42414     42542      5659     42222     42400 
dram[4]:     42520     42564    152676    325180    192980     42521     42566     42509     42351     42363     42365     42230     42599     42441     42549      7031 
dram[5]:     42383      7004    104872    192786     42507     42358     42457     42383     42348     42419     42489     42370      5647     42436     42487     42497 
dram[6]:     42122     42675    120826    293954     42535     42438      7159     42300     42397     42535     42474      5627     42419     42171      6863     42307 
dram[7]:     42302     42400    115491    288339      6851     41954     42349     42506     42597     42460     42448     42371     42467     42343     42688     42314 
dram[8]:     42268     42582     88908    259990      6849     42568     42317     42318     42624     42311     42368     42425     42520     42343      7091     42278 
dram[9]:     42208     42613     83572    324353      6868      7150     42315     42566     42559     42305     42174     42496      5618     42411     42274     42290 
dram[10]:     42291      6955     99535    271376     42389     42289     42629     42653     42492     42504     42426     42380     42391     42414      7002      6662 
dram[11]:     42263      6808     94088    265702     42377     42237     42481     42594     42478     42465      5661     42532     42280     42523     42446     42453 
dram[12]:     42288     42387     67494    350245     42346     42492     42213     42411     42295     42273     42476     42632     42492     42493     42336      6873 
dram[13]:      6917     42245    104997    302311     42211     42428     42472     42385     42270     42496     42373     42647      5623      5654     42397     42557 
dram[14]:      6977     42235     78098    318798     42414      6929     42532     42482     42484     42508     42457      5635     42389     42588     42562     42484 
dram[15]:     42516     42575     72731    313261      6863     42480     42320     42427     42354     42359     42397     42300     42344     42379     42385     42532 
dram[16]:     42394     42377     42233    285360     42492     42479     42207     42424      6914     42295     42373     42460     42469      5605     42225     42203 
dram[17]:     42516     42352     37070    279808     42595     42358     42389     42571     42476     42541     42389      5603     42441     42450     42457      6878 
dram[18]:     42390     42350     52165    296694     42382     42395      6851      7018     42533     42589     42283      5603     42158     42233     42463     42581 
dram[19]:     42268     42375     42378    291117     42436     42121     42540     42537     42351     42391     42142     42518     42426     42464     42686     42419 
dram[20]:     42442     42271     25679    305431     42397     42532     42700     42415     41881     42355      5613     42445     42318     42617     42557      6975 
dram[21]:     42457     42297     23171    299192     42348     42470     42546     42312     42506     42309     42501     42205      5637      5579     42472     42584 
dram[22]:     42608     42592     33355    192800     42483     42593     42541     42271     42581      6943     42291     42295     42513     42407     42179     42387 
dram[23]:     42494     42450     51486    268512     42467      6941      7014     42280      7113      6967     42489     42533     42581     42548     42600     42321 
dram[24]:     42194     42344    274384    283127     42515     42605     42521     42121     42445     42290      5601     42344      5598     42367      6694      6950 
dram[25]:     42409     42570      7036    235307     42441      6791     42587     42278     42350     42303      5603     42357     42477     42438     42321     42693 
dram[26]:     42438     42389    285730    251167     42242     42511     42487     42458     42493     42591     42428     42051     42480     42312     42276     42395 
dram[27]:     42537     42434     28361    288515     42123     42453     42730     42278      6822      7006     42281     42337     42479     42370     42410     42419 
dram[28]:     42369     42389    321649    219439     42560     42419      6994     42575     42295     42421     42310     42462     42426      5635      6859     42224 
dram[29]:     42305     42612    260058    214114     42552     42436     42261     42494     42538     42310     42312     42320      5606      5620     42409     42256 
dram[30]:     42255      7065    263087    229998     42426     42261     41905      6837      6914     42472     42317      5642     42497     42412     42591      7007 
dram[31]:    259470     42435    268674    224684      6801      6858     42454     42755     42411     42476     42319     42506     42223     42062     42322      6970 
average row accesses per activate:
dram[0]:  1.166667  1.090909  2.000000  1.875000  1.000000  1.000000  1.000000  1.000000  1.153846  1.000000 14.750000 10.333333  4.545455  8.800000  1.000000  1.000000 
dram[1]:  1.000000  1.000000  2.000000  2.400000  1.000000  1.200000  1.200000  1.000000  1.000000  1.090909 19.666666  8.857142  5.444445  5.875000  1.200000  1.000000 
dram[2]:  1.250000  1.000000  1.636364  1.875000  1.000000  1.100000  1.500000  1.000000  1.000000  1.000000  4.928571  5.200000  4.545455  4.250000  1.083333  1.000000 
dram[3]:  1.000000  1.100000  1.421053  1.636364  1.200000  1.000000  1.500000  1.000000  1.250000  1.500000  7.111111  8.222222 10.750000  6.000000  1.100000  1.000000 
dram[4]:  1.000000  1.166667  2.142857  1.875000  1.166667  1.333333  1.000000  1.000000  1.000000  1.000000  6.500000  7.300000 10.750000  8.800000  1.000000  1.111111 
dram[5]:  1.000000  1.000000  2.000000  1.437500  1.000000  1.142857  1.200000  1.125000  1.000000  1.000000  9.000000  6.727273 10.750000  6.571429  1.000000  1.000000 
dram[6]:  1.250000  1.000000  2.400000  1.800000  1.000000  1.000000  1.000000  1.000000  1.000000  1.000000  7.875000 10.142858  4.153846  3.857143  1.000000  1.000000 
dram[7]:  1.181818  1.250000  1.888889  1.875000  1.000000  1.000000  1.000000  1.125000  1.000000  1.000000  8.857142  8.875000  6.571429  4.333333  1.000000  1.111111 
dram[8]:  1.000000  1.000000  2.000000  1.466667  1.200000  1.000000  1.100000  1.000000  1.000000  1.000000  7.875000  7.875000  7.500000  4.900000  1.000000  1.000000 
dram[9]:  1.000000  1.000000  1.777778  1.888889  1.000000  1.000000  1.000000  1.166667  1.142857  1.000000  5.230769  6.500000  8.800000  5.333333  1.000000  1.076923 
dram[10]:  1.100000  1.000000  1.777778  2.142857  1.153846  1.000000  1.000000  1.000000  1.000000  1.000000  7.875000  7.875000  5.444445  5.875000  1.200000  1.000000 
dram[11]:  1.100000  1.000000  2.400000  2.000000  1.000000  1.000000  1.000000  1.000000  1.000000  1.000000 15.000000 10.166667  4.636364  4.900000  1.000000  1.000000 
dram[12]:  1.000000  1.000000  1.700000  2.166667  1.000000  1.000000  1.000000  1.000000  1.111111  1.000000 10.166667 10.333333  7.500000  7.833333  1.000000  1.000000 
dram[13]:  1.000000  1.090909  2.000000  2.600000  1.100000  1.000000  1.000000  1.100000  1.000000  1.000000  5.307693 12.000000  6.571429  8.800000  1.100000  1.000000 
dram[14]:  1.000000  1.000000  1.500000  1.777778  1.000000  1.500000  1.000000  1.000000  1.166667  1.200000  8.857142  9.142858  4.636364  7.500000  1.000000  1.000000 
dram[15]:  1.166667  1.000000  1.636364  2.000000  1.000000  1.285714  1.000000  1.000000  1.000000  1.000000  6.500000  5.583333  3.666667  4.900000  1.222222  1.166667 
dram[16]:  1.000000  1.000000  2.363636  1.538462  1.166667  1.000000  1.000000  1.000000  1.000000  1.083333  7.111111 10.166667  6.714286  8.750000  1.083333  1.000000 
dram[17]:  1.000000  1.000000  2.400000  1.777778  1.000000  1.000000  1.100000  1.000000  1.166667  1.111111  6.600000 12.200000  5.875000  5.428571  1.285714  1.000000 
dram[18]:  1.000000  1.000000  2.400000  1.777778  1.000000  1.090909  1.000000  1.000000  1.000000  1.000000  5.384615 15.000000  3.437500  4.416667  1.000000  1.000000 
dram[19]:  1.000000  1.100000  1.777778  2.142857  1.000000  1.076923  1.000000  1.000000  1.142857  1.000000  5.583333 12.200000  5.333333  6.000000  1.250000  1.000000 
dram[20]:  1.000000  1.083333  4.750000  2.000000  1.000000  1.000000  1.000000  1.125000  1.000000  1.181818 56.000000  6.500000  6.714286  4.444445  1.333333  1.000000 
dram[21]:  1.111111  1.200000  2.400000  2.750000  1.090909  1.125000  1.142857  1.000000  1.166667  1.000000 12.000000  5.750000 10.750000  4.875000  1.000000  1.000000 
dram[22]:  1.000000  1.000000  2.363636  1.466667  1.000000  1.333333  1.000000  1.000000  1.200000  1.000000  6.600000  6.500000  6.000000  5.428571  1.090909  1.000000 
dram[23]:  1.000000  1.000000  2.071429  1.615385  1.000000  1.666667  1.000000  1.000000  1.000000  1.000000  9.000000  6.500000  6.714286  4.444445  1.333333  1.166667 
dram[24]:  1.153846  1.181818  3.000000  2.166667  1.000000  1.250000  1.000000  1.000000  1.100000  1.000000 19.666666  7.222222 10.750000  4.545455  1.250000  1.000000 
dram[25]:  1.000000  1.000000  6.000000  1.777778  1.000000  1.000000  1.200000  1.166667  1.083333  1.000000 12.200000  6.500000  4.076923  5.875000  1.000000  1.000000 
dram[26]:  1.000000  1.000000  2.454545  1.538462  1.000000  1.125000  1.000000  1.000000  1.000000  1.000000  8.857142  4.733333  5.875000  5.333333  1.000000  1.222222 
dram[27]:  1.000000  1.000000  2.076923  2.600000  1.000000  1.000000  1.000000  1.000000  1.000000  1.333333  4.928571  5.071429  7.500000  5.000000  1.000000  1.000000 
dram[28]:  1.000000  1.000000  1.777778  2.600000  1.000000  1.000000  1.000000  1.000000  1.000000  1.000000  6.000000  7.222222  6.571429 21.500000  1.125000  1.111111 
dram[29]:  1.000000  1.000000  1.875000  2.000000  1.000000  1.000000  1.000000  1.000000  1.125000  1.000000  6.272727  7.875000  6.571429 14.333333  1.000000  1.000000 
dram[30]:  1.000000  1.142857  2.181818  2.000000  1.000000  1.076923  1.000000  1.000000  1.000000  1.000000  6.500000 14.750000  4.250000  3.857143  1.000000  1.666667 
dram[31]:  1.000000  1.000000  1.636364  1.875000  1.000000  1.000000  1.000000  1.500000  1.125000  1.166667  5.583333  8.857142  3.562500  3.666667  1.000000  1.500000 
average row locality = 10847/4098 = 2.646901
number of total memory accesses made:
dram[0]:         0         0         0         0         0         0         0         0         0         0         0         0         0         0         0         0 
dram[1]:         0         0         0         0         0         0         0         0         0         0         0         0         0         0         0         0 
dram[2]:         0         0         0         0         0         0         0         0         0         0         0         0         0         0         0         0 
dram[3]:         0         0         0         0         0         0         0         0         0         0         0         0         0         0         0         0 
dram[4]:         0         0         0         0         0         0         0         0         0         0         0         0         0         0         0         0 
dram[5]:         0         0         0         0         0         0         0         0         0         0         0         0         0         0         0         0 
dram[6]:         0         0         0         0         0         0         0         0         0         0         0         0         0         0         0         0 
dram[7]:         0         0         0         0         0         0         0         0         0         0         0         0         0         0         0         0 
dram[8]:         0         0         0         0         0         0         0         0         0         0         0         0         0         0         0         0 
dram[9]:         0         0         0         0         0         0         0         0         0         0         0         0         0         0         0         0 
dram[10]:         0         0         0         0         0         0         0         0         0         0         0         0         0         0         0         0 
dram[11]:         0         0         0         0         0         0         0         0         0         0         0         0         0         0         0         0 
dram[12]:         0         0         0         0         0         0         0         0         0         0         0         0         0         0         0         0 
dram[13]:         0         0         0         0         0         0         0         0         0         0         0         0         0         0         0         0 
dram[14]:         0         0         0         0         0         0         0         0         0         0         0         0         0         0         0         0 
dram[15]:         0         0         0         0         0         0         0         0         0         0         0         0         0         0         0         0 
dram[16]:         0         0         0         0         0         0         0         0         0         0         0         0         0         0         0         0 
dram[17]:         0         0         0         0         0         0         0         0         0         0         0         0         0         0         0         0 
dram[18]:         0         0         0         0         0         0         0         0         0         0         0         0         0         0         0         0 
dram[19]:         0         0         0         0         0         0         0         0         0         0         0         0         0         0         0         0 
dram[20]:         0         0         0         0         0         0         0         0         0         0         0         0         0         0         0         0 
dram[21]:         0         0         0         0         0         0         0         0         0         0         0         0         0         0         0         0 
dram[22]:         0         0         0         0         0         0         0         0         0         0         0         0         0         0         0         0 
dram[23]:         0         0         0         0         0         0         0         0         0         0         0         0         0         0         0         0 
dram[24]:         0         0         0         0         0         0         0         0         0         0         0         0         0         0         0         0 
dram[25]:         0         0         0         0         0         0         0         0         0         0         0         0         0         0         0         0 
dram[26]:         0         0         0         0         0         0         0         0         0         0         0         0         0         0         0         0 
dram[27]:         0         0         0         0         0         0         0         0         0         0         0         0         0         0         0         0 
dram[28]:         0         0         0         0         0         0         0         0         0         0         0         0         0         0         0         0 
dram[29]:         0         0         0         0         0         0         0         0         0         0         0         0         0         0         0         0 
dram[30]:         0         0         0         0         0         0         0         0         0         0         0         0         0         0         0         0 
dram[31]:         0         0         0         0         0         0         0         0         0         0         0         0         0         0         0         0 
total accesses: 0
min_bank_accesses = 0!
min_chip_accesses = 0!
number of total read accesses:
dram[0]:         7        12        14        15         7         5         7         7        15         8        59        62        50        44        10         4 
dram[1]:         9        14        14        12         4         6        18        11         7        12        59        62        49        47         6         3 
dram[2]:         5         8        18        15         8        11         3        13         6         2        69        78        50        51        13         7 
dram[3]:         4        11        27        18        12         8         6         9         5         6        64        74        43        48        11         7 
dram[4]:         7         7        15        15         7         8         6         6         6        11        65        73        43        44         6        10 
dram[5]:         6         3        14        23         5         8        12         9         9         9        63        74        43        46         8         9 
dram[6]:        15         5        12        18         7         9         4         9         9         7        63        71        54        54         3        11 
dram[7]:        13        10        17        15         9        16         7         9         4         7        62        71        46        52         4        10 
dram[8]:        10         7        16        22         6         4        11         9         6         9        63        63        45        49         5        11 
dram[9]:        12         4        16        17         2         3        10         7         8        11        68        65        44        48         9        14 
dram[10]:        11         7        16        15        15        14         6         6         6         7        63        63        49        47         6         7 
dram[11]:        11         3        12        16         9         8         7         6         8         5        60        61        51        49         6         9 
dram[12]:        10        10        17        13         9         7        12         7        10        11        61        62        45        47         9         4 
dram[13]:         4        12        14        13        11         8         7        11        13        10        69        60        46        44        11         4 
[...]
Row_Bus_Util =  0.027729 
CoL_Bus_Util = 0.095392 
Either_Row_CoL_Bus_Util = 0.109947 
Issued_on_Two_Bus_Simul_Util = 0.013174 
issued_two_Eff = 0.119823 
queue_avg = 4.838769 


dram_util_bins: 0 0 0 0 0 0 0 0 0 0
dram_eff_bins: 0 0 0 0 0 0 0 0 0 0
mrqq: max=64 avg=4.83877
Memory Partition 29: 
Cache L2_bank_058:
MSHR contents

Cache L2_bank_059:
MSHR contents

In Dram Latency Queue (total = 0): 
DRAM[29]: 16 bks, busW=16 BL=2 CL=12, tRRD=3 tCCD=1, tRCD=12 tRAS=28 tRP=12 tRC=40
n_cmd=567857 n_nop=505193 n_act=7900 n_pre=7884 n_ref_event=0 n_req=35599 n_rd=29312 n_rd_L2_A=0 n_write=0 n_wr_bk=24880 bw_util=0.09543
n_activity=90879 dram_eff=0.5963
bk0: 1904a 528481i bk1: 1901a 530766i bk2: 2004a 530131i bk3: 1992a 531281i bk4: 1869a 531789i bk5: 1853a 533375i bk6: 1775a 534760i bk7: 1799a 535641i bk8: 1788a 533539i bk9: 1781a 533365i bk10: 1770a 534792i bk11: 1758a 535215i bk12: 1808a 533016i bk13: 1791a 531176i bk14: 1752a 534745i bk15: 1767a 534331i 

------------------------------------------------------------------------

Row_Buffer_Locality = 0.778084
Row_Buffer_Locality_read = 0.775519
Row_Buffer_Locality_write = 0.790043
Bank_Level_Parallism = 6.830251
Bank_Level_Parallism_Col = 5.208863
Bank_Level_Parallism_Ready = 2.213666
write_to_read_ratio_blp_rw_average = 0.517672
GrpLevelPara = 2.906996 

BW Util details:
bwutil = 0.095432 
total_CMD = 567857 
util_bw = 54192 
Wasted_Col = 28616 
Wasted_Row = 4291 
Idle = 480758 

BW Util Bottlenecks: 
RCDc_limit = 42010 
RCDWRc_limit = 5279 
WTRc_limit = 12000 
RTWc_limit = 48742 
CCDLc_limit = 17464 
rwq = 0 
CCDLc_limit_alone = 12105 
WTRc_limit_alone = 10906 
RTWc_limit_alone = 44477 

Commands details: 
total_CMD = 567857 
n_nop = 505193 
Read = 29312 
Write = 0 
L2_Alloc = 0 
L2_WB = 24880 
n_act = 7900 
n_pre = 7884 
n_ref = 0 
n_req = 35599 
total_req = 54192 

Dual Bus Interface Util: 
issued_total_row = 15784 
issued_total_col = 54192 
Row_Bus_Util =  0.027796 
CoL_Bus_Util = 0.095432 
Either_Row_CoL_Bus_Util = 0.110352 
Issued_on_Two_Bus_Simul_Util = 0.012876 
issued_two_Eff = 0.116686 
queue_avg = 4.954983 


dram_util_bins: 0 0 0 0 0 0 0 0 0 0
dram_eff_bins: 0 0 0 0 0 0 0 0 0 0
mrqq: max=64 avg=4.95498
Memory Partition 30: 
Cache L2_bank_060:
MSHR contents

Cache L2_bank_061:
MSHR contents

In Dram Latency Queue (total = 0): 
DRAM[30]: 16 bks, busW=16 BL=2 CL=12, tRRD=3 tCCD=1, tRCD=12 tRAS=28 tRP=12 tRC=40
n_cmd=567857 n_nop=505414 n_act=7798 n_pre=7782 n_ref_event=0 n_req=35586 n_rd=29278 n_rd_L2_A=0 n_write=0 n_wr_bk=24918 bw_util=0.09544
n_activity=90472 dram_eff=0.599
bk0: 1885a 531485i bk1: 1894a 530039i bk2: 1987a 532939i bk3: 1982a 531084i bk4: 1875a 533206i bk5: 1880a 531384i bk6: 1797a 535024i bk7: 1778a 535642i bk8: 1783a 535793i bk9: 1784a 534535i bk10: 1783a 534421i bk11: 1761a 535068i bk12: 1787a 534218i bk13: 1807a 532787i bk14: 1758a 533420i bk15: 1737a 535673i 

------------------------------------------------------------------------

Row_Buffer_Locality = 0.780869
Row_Buffer_Locality_read = 0.779220
Row_Buffer_Locality_write = 0.788522
Bank_Level_Parallism = 6.749022
Bank_Level_Parallism_Col = 5.120287
Bank_Level_Parallism_Ready = 2.184497
write_to_read_ratio_blp_rw_average = 0.517549
GrpLevelPara = 2.909291 

BW Util details:
bwutil = 0.095440 
total_CMD = 567857 
util_bw = 54196 
Wasted_Col = 28257 
Wasted_Row = 4164 
Idle = 481240 

BW Util Bottlenecks: 
RCDc_limit = 41186 
RCDWRc_limit = 5287 
WTRc_limit = 11011 
RTWc_limit = 47435 
CCDLc_limit = 17421 
rwq = 0 
CCDLc_limit_alone = 11946 
WTRc_limit_alone = 9898 
RTWc_limit_alone = 43073 

Commands details: 
total_CMD = 567857 
n_nop = 505414 
Read = 29278 
Write = 0 
L2_Alloc = 0 
L2_WB = 24918 
n_act = 7798 
n_pre = 7782 
n_ref = 0 
n_req = 35586 
total_req = 54196 

Dual Bus Interface Util: 
issued_total_row = 15580 
issued_total_col = 54196 
Row_Bus_Util =  0.027436 
CoL_Bus_Util = 0.095440 
Either_Row_CoL_Bus_Util = 0.109963 
Issued_on_Two_Bus_Simul_Util = 0.012913 
issued_two_Eff = 0.117435 
queue_avg = 4.882375 


dram_util_bins: 0 0 0 0 0 0 0 0 0 0
dram_eff_bins: 0 0 0 0 0 0 0 0 0 0
mrqq: max=64 avg=4.88238
Memory Partition 31: 
Cache L2_bank_062:
MSHR contents

Cache L2_bank_063:
MSHR contents

In Dram Latency Queue (total = 0): 
DRAM[31]: 16 bks, busW=16 BL=2 CL=12, tRRD=3 tCCD=1, tRCD=12 tRAS=28 tRP=12 tRC=40
n_cmd=567857 n_nop=505456 n_act=7862 n_pre=7846 n_ref_event=0 n_req=35685 n_rd=29375 n_rd_L2_A=0 n_write=0 n_wr_bk=24936 bw_util=0.09564
n_activity=89970 dram_eff=0.6037
bk0: 1877a 529033i bk1: 1891a 530155i bk2: 1978a 530816i bk3: 1995a 530986i bk4: 1910a 529832i bk5: 1857a 532175i bk6: 1796a 532653i bk7: 1788a 535584i bk8: 1794a 532541i bk9: 1772a 533607i bk10: 1779a 534983i bk11: 1794a 532845i bk12: 1830a 532099i bk13: 1806a 532734i bk14: 1742a 534770i bk15: 1766a 533630i 

------------------------------------------------------------------------

Row_Buffer_Locality = 0.779683
Row_Buffer_Locality_read = 0.778111
Row_Buffer_Locality_write = 0.787005
Bank_Level_Parallism = 7.023589
Bank_Level_Parallism_Col = 5.372353
Bank_Level_Parallism_Ready = 2.298595
write_to_read_ratio_blp_rw_average = 0.517783
GrpLevelPara = 2.929783 

BW Util details:
bwutil = 0.095642 
total_CMD = 567857 
util_bw = 54311 
Wasted_Col = 27204 
Wasted_Row = 4332 
Idle = 482010 

BW Util Bottlenecks: 
RCDc_limit = 39955 
RCDWRc_limit = 5384 
WTRc_limit = 11141 
RTWc_limit = 48865 
CCDLc_limit = 17912 
rwq = 0 
CCDLc_limit_alone = 12352 
WTRc_limit_alone = 9999 
RTWc_limit_alone = 44447 

Commands details: 
total_CMD = 567857 
n_nop = 505456 
Read = 29375 
Write = 0 
L2_Alloc = 0 
L2_WB = 24936 
n_act = 7862 
n_pre = 7846 
n_ref = 0 
n_req = 35685 
total_req = 54311 

Dual Bus Interface Util: 
issued_total_row = 15708 
issued_total_col = 54311 
Row_Bus_Util =  0.027662 
CoL_Bus_Util = 0.095642 
Either_Row_CoL_Bus_Util = 0.109889 
Issued_on_Two_Bus_Simul_Util = 0.013415 
issued_two_Eff = 0.122081 
queue_avg = 4.963354 


dram_util_bins: 0 0 0 0 0 0 0 0 0 0
dram_eff_bins: 0 0 0 0 0 0 0 0 0 0
mrqq: max=64 avg=4.96335

========= L2 cache stats =========
L2_cache_bank[0]: Access = 281781, Miss = 27616, Miss_rate = 0.098, Pending_hits = 206, Reservation_fails = 2540
L2_cache_bank[1]: Access = 301665, Miss = 27731, Miss_rate = 0.092, Pending_hits = 234, Reservation_fails = 2331
L2_cache_bank[2]: Access = 276108, Miss = 27688, Miss_rate = 0.100, Pending_hits = 197, Reservation_fails = 2190
L2_cache_bank[3]: Access = 271328, Miss = 27579, Miss_rate = 0.102, Pending_hits = 225, Reservation_fails = 2028
L2_cache_bank[4]: Access = 263248, Miss = 27572, Miss_rate = 0.105, Pending_hits = 181, Reservation_fails = 1956
L2_cache_bank[5]: Access = 276792, Miss = 27708, Miss_rate = 0.100, Pending_hits = 229, Reservation_fails = 2087
L2_cache_bank[6]: Access = 288482, Miss = 27664, Miss_rate = 0.096, Pending_hits = 164, Reservation_fails = 1510
L2_cache_bank[7]: Access = 282094, Miss = 27643, Miss_rate = 0.098, Pending_hits = 218, Reservation_fails = 2428
L2_cache_bank[8]: Access = 288149, Miss = 27649, Miss_rate = 0.096, Pending_hits = 179, Reservation_fails = 2171
L2_cache_bank[9]: Access = 253857, Miss = 27705, Miss_rate = 0.109, Pending_hits = 228, Reservation_fails = 1590
L2_cache_bank[10]: Access = 275203, Miss = 27705, Miss_rate = 0.101, Pending_hits = 201, Reservation_fails = 1999
L2_cache_bank[11]: Access = 251050, Miss = 27605, Miss_rate = 0.110, Pending_hits = 236, Reservation_fails = 1945
L2_cache_bank[12]: Access = 294661, Miss = 27632, Miss_rate = 0.094, Pending_hits = 203, Reservation_fails = 2019
L2_cache_bank[13]: Access = 272963, Miss = 27626, Miss_rate = 0.101, Pending_hits = 213, Reservation_fails = 2567
L2_cache_bank[14]: Access = 278842, Miss = 27654, Miss_rate = 0.099, Pending_hits = 208, Reservation_fails = 1680
L2_cache_bank[15]: Access = 283836, Miss = 27610, Miss_rate = 0.097, Pending_hits = 195, Reservation_fails = 2216
L2_cache_bank[16]: Access = 281782, Miss = 27705, Miss_rate = 0.098, Pending_hits = 127, Reservation_fails = 1888
L2_cache_bank[17]: Access = 266748, Miss = 27586, Miss_rate = 0.103, Pending_hits = 188, Reservation_fails = 1770
L2_cache_bank[18]: Access = 261849, Miss = 27579, Miss_rate = 0.105, Pending_hits = 141, Reservation_fails = 2182
L2_cache_bank[19]: Access = 292093, Miss = 27695, Miss_rate = 0.095, Pending_hits = 194, Reservation_fails = 1342
L2_cache_bank[20]: Access = 285488, Miss = 27672, Miss_rate = 0.097, Pending_hits = 161, Reservation_fails = 2459
L2_cache_bank[21]: Access = 252983, Miss = 27550, Miss_rate = 0.109, Pending_hits = 165, Reservation_fails = 1378
L2_cache_bank[22]: Access = 246150, Miss = 27590, Miss_rate = 0.112, Pending_hits = 145, Reservation_fails = 2160
L2_cache_bank[23]: Access = 253870, Miss = 27684, Miss_rate = 0.109, Pending_hits = 163, Reservation_fails = 1031
L2_cache_bank[24]: Access = 280426, Miss = 27647, Miss_rate = 0.099, Pending_hits = 94, Reservation_fails = 939
L2_cache_bank[25]: Access = 290509, Miss = 27593, Miss_rate = 0.095, Pending_hits = 142, Reservation_fails = 1017
L2_cache_bank[26]: Access = 308836, Miss = 27595, Miss_rate = 0.089, Pending_hits = 108, Reservation_fails = 972
L2_cache_bank[27]: Access = 295394, Miss = 27694, Miss_rate = 0.094, Pending_hits = 109, Reservation_fails = 989
L2_cache_bank[28]: Access = 245128, Miss = 27622, Miss_rate = 0.113, Pending_hits = 93, Reservation_fails = 927
L2_cache_bank[29]: Access = 265610, Miss = 27603, Miss_rate = 0.104, Pending_hits = 186, Reservation_fails = 2269
L2_cache_bank[30]: Access = 258453, Miss = 27605, Miss_rate = 0.107, Pending_hits = 114, Reservation_fails = 1574
L2_cache_bank[31]: Access = 257755, Miss = 27691, Miss_rate = 0.107, Pending_hits = 171, Reservation_fails = 1567
L2_cache_bank[32]: Access = 290420, Miss = 27689, Miss_rate = 0.095, Pending_hits = 134, Reservation_fails = 851
L2_cache_bank[33]: Access = 289485, Miss = 27609, Miss_rate = 0.095, Pending_hits = 131, Reservation_fails = 918
L2_cache_bank[34]: Access = 265764, Miss = 27554, Miss_rate = 0.104, Pending_hits = 141, Reservation_fails = 1192
L2_cache_bank[35]: Access = 277332, Miss = 27690, Miss_rate = 0.100, Pending_hits = 135, Reservation_fails = 950
L2_cache_bank[36]: Access = 266544, Miss = 27658, Miss_rate = 0.104, Pending_hits = 133, Reservation_fails = 920
L2_cache_bank[37]: Access = 283619, Miss = 27609, Miss_rate = 0.097, Pending_hits = 128, Reservation_fails = 981
L2_cache_bank[38]: Access = 269222, Miss = 27567, Miss_rate = 0.102, Pending_hits = 162, Reservation_fails = 889
L2_cache_bank[39]: Access = 268061, Miss = 27666, Miss_rate = 0.103, Pending_hits = 123, Reservation_fails = 1010
L2_cache_bank[40]: Access = 272992, Miss = 27668, Miss_rate = 0.101, Pending_hits = 139, Reservation_fails = 956
L2_cache_bank[41]: Access = 278299, Miss = 27620, Miss_rate = 0.099, Pending_hits = 131, Reservation_fails = 929
L2_cache_bank[42]: Access = 297165, Miss = 27557, Miss_rate = 0.093, Pending_hits = 129, Reservation_fails = 1413
L2_cache_bank[43]: Access = 263572, Miss = 27701, Miss_rate = 0.105, Pending_hits = 142, Reservation_fails = 911
L2_cache_bank[44]: Access = 295321, Miss = 27672, Miss_rate = 0.094, Pending_hits = 116, Reservation_fails = 935
L2_cache_bank[45]: Access = 246372, Miss = 27568, Miss_rate = 0.112, Pending_hits = 110, Reservation_fails = 861
L2_cache_bank[46]: Access = 267779, Miss = 27567, Miss_rate = 0.103, Pending_hits = 144, Reservation_fails = 1134
L2_cache_bank[47]: Access = 261616, Miss = 27705, Miss_rate = 0.106, Pending_hits = 159, Reservation_fails = 1034
L2_cache_bank[48]: Access = 299694, Miss = 27601, Miss_rate = 0.092, Pending_hits = 183, Reservation_fails = 1251
L2_cache_bank[49]: Access = 257631, Miss = 27675, Miss_rate = 0.107, Pending_hits = 175, Reservation_fails = 1203
L2_cache_bank[50]: Access = 253102, Miss = 27663, Miss_rate = 0.109, Pending_hits = 186, Reservation_fails = 1429
L2_cache_bank[51]: Access = 280575, Miss = 27588, Miss_rate = 0.098, Pending_hits = 162, Reservation_fails = 1115
L2_cache_bank[52]: Access = 281327, Miss = 27570, Miss_rate = 0.098, Pending_hits = 192, Reservation_fails = 877
L2_cache_bank[53]: Access = 295535, Miss = 27697, Miss_rate = 0.094, Pending_hits = 195, Reservation_fails = 987
L2_cache_bank[54]: Access = 270936, Miss = 27655, Miss_rate = 0.102, Pending_hits = 137, Reservation_fails = 981
L2_cache_bank[55]: Access = 278783, Miss = 27610, Miss_rate = 0.099, Pending_hits = 186, Reservation_fails = 1008
L2_cache_bank[56]: Access = 246498, Miss = 27523, Miss_rate = 0.112, Pending_hits = 154, Reservation_fails = 869
L2_cache_bank[57]: Access = 296114, Miss = 27682, Miss_rate = 0.093, Pending_hits = 243, Reservation_fails = 3367
L2_cache_bank[58]: Access = 258440, Miss = 27659, Miss_rate = 0.107, Pending_hits = 145, Reservation_fails = 105
L2_cache_bank[59]: Access = 248815, Miss = 27597, Miss_rate = 0.111, Pending_hits = 207, Reservation_fails = 3306
L2_cache_bank[60]: Access = 246906, Miss = 27565, Miss_rate = 0.112, Pending_hits = 197, Reservation_fails = 2158
L2_cache_bank[61]: Access = 284437, Miss = 27675, Miss_rate = 0.097, Pending_hits = 223, Reservation_fails = 2166
L2_cache_bank[62]: Access = 289700, Miss = 27697, Miss_rate = 0.096, Pending_hits = 197, Reservation_fails = 1262
L2_cache_bank[63]: Access = 307551, Miss = 27662, Miss_rate = 0.090, Pending_hits = 235, Reservation_fails = 1860
L2_total_cache_accesses = 17572740
L2_total_cache_misses = 1768717
L2_total_cache_miss_rate = 0.1007
L2_total_cache_pending_hits = 10792
L2_total_cache_reservation_fails = 97549
L2_total_cache_breakdown:
	L2_cache_stats_breakdown[Stream_0][GLOBAL_ACC_R][HIT] = 354722
	L2_cache_stats_breakdown[Stream_0][GLOBAL_ACC_R][HIT_RESERVED] = 6542
	L2_cache_stats_breakdown[Stream_0][GLOBAL_ACC_R][MISS] = 122372
	L2_cache_stats_breakdown[Stream_0][GLOBAL_ACC_R][RESERVATION_FAIL] = 97548
	L2_cache_stats_breakdown[Stream_0][GLOBAL_ACC_R][SECTOR_MISS] = 335209
	L2_cache_stats_breakdown[Stream_0][GLOBAL_ACC_R][MSHR_HIT] = 6542
	L2_cache_stats_breakdown[Stream_0][LOCAL_ACC_R][HIT] = 0
	L2_cache_stats_breakdown[Stream_0][LOCAL_ACC_R][HIT_RESERVED] = 0
	L2_cache_stats_breakdown[Stream_0][LOCAL_ACC_R][MISS] = 0
	L2_cache_stats_breakdown[Stream_0][LOCAL_ACC_R][RESERVATION_FAIL] = 0
	L2_cache_stats_breakdown[Stream_0][LOCAL_ACC_R][SECTOR_MISS] = 0
	L2_cache_stats_breakdown[Stream_0][LOCAL_ACC_R][MSHR_HIT] = 0
	L2_cache_stats_breakdown[Stream_0][CONST_ACC_R][HIT] = 0
	L2_cache_stats_breakdown[Stream_0][CONST_ACC_R][HIT_RESERVED] = 0
	L2_cache_stats_breakdown[Stream_0][CONST_ACC_R][MISS] = 0
	L2_cache_stats_breakdown[Stream_0][CONST_ACC_R][RESERVATION_FAIL] = 0
	L2_cache_stats_breakdown[Stream_0][CONST_ACC_R][SECTOR_MISS] = 0
	L2_cache_stats_breakdown[Stream_0][CONST_ACC_R][MSHR_HIT] = 0
	L2_cache_stats_breakdown[Stream_0][TEXTURE_ACC_R][HIT] = 0
	L2_cache_stats_breakdown[Stream_0][TEXTURE_ACC_R][HIT_RESERVED] = 0
	L2_cache_stats_breakdown[Stream_0][TEXTURE_ACC_R][MISS] = 0
	L2_cache_stats_breakdown[Stream_0][TEXTURE_ACC_R][RESERVATION_FAIL] = 0
	L2_cache_stats_breakdown[Stream_0][TEXTURE_ACC_R][SECTOR_MISS] = 0
	L2_cache_stats_breakdown[Stream_0][TEXTURE_ACC_R][MSHR_HIT] = 0
	L2_cache_stats_breakdown[Stream_0][GLOBAL_ACC_W][HIT] = 15427309
	L2_cache_stats_breakdown[Stream_0][GLOBAL_ACC_W][HIT_RESERVED] = 4250
	L2_cache_stats_breakdown[Stream_0][GLOBAL_ACC_W][MISS] = 148033
	L2_cache_stats_breakdown[Stream_0][GLOBAL_ACC_W][RESERVATION_FAIL] = 0
	L2_cache_stats_breakdown[Stream_0][GLOBAL_ACC_W][SECTOR_MISS] = 434221
	L2_cache_stats_breakdown[Stream_0][GLOBAL_ACC_W][MSHR_HIT] = 0
	L2_cache_stats_breakdown[Stream_0][LOCAL_ACC_W][HIT] = 0
	L2_cache_stats_breakdown[Stream_0][LOCAL_ACC_W][HIT_RESERVED] = 0
	L2_cache_stats_breakdown[Stream_0][LOCAL_ACC_W][MISS] = 0
	L2_cache_stats_breakdown[Stream_0][LOCAL_ACC_W][RESERVATION_FAIL] = 0
	L2_cache_stats_breakdown[Stream_0][LOCAL_ACC_W][SECTOR_MISS] = 0
	L2_cache_stats_breakdown[Stream_0][LOCAL_ACC_W][MSHR_HIT] = 0
	L2_cache_stats_breakdown[Stream_0][L1_WRBK_ACC][HIT] = 0
	L2_cache_stats_breakdown[Stream_0][L1_WRBK_ACC][HIT_RESERVED] = 0
	L2_cache_stats_breakdown[Stream_0][L1_WRBK_ACC][MISS] = 0
	L2_cache_stats_breakdown[Stream_0][L1_WRBK_ACC][RESERVATION_FAIL] = 0
	L2_cache_stats_breakdown[Stream_0][L1_WRBK_ACC][SECTOR_MISS] = 0
	L2_cache_stats_breakdown[Stream_0][L1_WRBK_ACC][MSHR_HIT] = 0
	L2_cache_stats_breakdown[Stream_0][L2_WRBK_ACC][HIT] = 0
	L2_cache_stats_breakdown[Stream_0][L2_WRBK_ACC][HIT_RESERVED] = 0
	L2_cache_stats_breakdown[Stream_0][L2_WRBK_ACC][MISS] = 0
	L2_cache_stats_breakdown[Stream_0][L2_WRBK_ACC][RESERVATION_FAIL] = 0
	L2_cache_stats_breakdown[Stream_0][L2_WRBK_ACC][SECTOR_MISS] = 0
	L2_cache_stats_breakdown[Stream_0][L2_WRBK_ACC][MSHR_HIT] = 0
	L2_cache_stats_breakdown[Stream_0][INST_ACC_R][HIT] = 0
	L2_cache_stats_breakdown[Stream_0][INST_ACC_R][HIT_RESERVED] = 0
	L2_cache_stats_breakdown[Stream_0][INST_ACC_R][MISS] = 0
	L2_cache_stats_breakdown[Stream_0][INST_ACC_R][RESERVATION_FAIL] = 0
	L2_cache_stats_breakdown[Stream_0][INST_ACC_R][SECTOR_MISS] = 0
	L2_cache_stats_breakdown[Stream_0][INST_ACC_R][MSHR_HIT] = 0
	L2_cache_stats_breakdown[Stream_0][L1_WR_ALLOC_R][HIT] = 0
	L2_cache_stats_breakdown[Stream_0][L1_WR_ALLOC_R][HIT_RESERVED] = 0
	L2_cache_stats_breakdown[Stream_0][L1_WR_ALLOC_R][MISS] = 0
	L2_cache_stats_breakdown[Stream_0][L1_WR_ALLOC_R][RESERVATION_FAIL] = 0
	L2_cache_stats_breakdown[Stream_0][L1_WR_ALLOC_R][SECTOR_MISS] = 0
	L2_cache_stats_breakdown[Stream_0][L1_WR_ALLOC_R][MSHR_HIT] = 0
	L2_cache_stats_breakdown[Stream_0][L2_WR_ALLOC_R][HIT] = 0
	L2_cache_stats_breakdown[Stream_0][L2_WR_ALLOC_R][HIT_RESERVED] = 0
	L2_cache_stats_breakdown[Stream_0][L2_WR_ALLOC_R][MISS] = 0
	L2_cache_stats_breakdown[Stream_0][L2_WR_ALLOC_R][RESERVATION_FAIL] = 0
	L2_cache_stats_breakdown[Stream_0][L2_WR_ALLOC_R][SECTOR_MISS] = 0
	L2_cache_stats_breakdown[Stream_0][L2_WR_ALLOC_R][MSHR_HIT] = 0
	L2_cache_stats_breakdown[Stream_0][GLOBAL_ACC_R][TOTAL_ACCESS] = 818845
	L2_cache_stats_breakdown[Stream_0][GLOBAL_ACC_W][TOTAL_ACCESS] = 16013813
L2_total_cache_reservation_fail_breakdown:
	L2_cache_stats_fail_breakdown[Stream_0][GLOBAL_ACC_R][MSHR_MERGE_ENRTY_FAIL] = 97548
L2_cache_data_port_util = 0.263
L2_cache_fill_port_util = 0.015

icnt_total_pkts_mem_to_simt=17572740
icnt_total_pkts_simt_to_mem=17572740
LD_mem_lat_dist  0 0 0 0 0 0 0 0 0 0 0 0 0 0 0 0 0 0 0 0 0 0 0 0 0 0 0
ST_mem_lat_dist  0 0 0 0 0 0 0 0 0 0 0 0 0 0 0 0 0 0 0 0 0 0 0 0 0 0 0
----------------------------Interconnect-DETAILS--------------------------------
Req_Network_injected_packets_num = 17572740
Req_Network_cycles = 966694
Req_Network_injected_packets_per_cycle =      18.1782 
Req_Network_conflicts_per_cycle =       6.5155
Req_Network_conflicts_per_cycle_util =       7.5747
Req_Bank_Level_Parallism =      21.1332
Req_Network_in_buffer_full_per_cycle =       0.0000
Req_Network_in_buffer_avg_util =       2.7437
Req_Network_out_buffer_full_per_cycle =       0.0000
Req_Network_out_buffer_avg_util =       3.1659

Reply_Network_injected_packets_num = 17572740
Reply_Network_cycles = 966694
Reply_Network_injected_packets_per_cycle =       18.1782
Reply_Network_conflicts_per_cycle =       13.1017
Reply_Network_conflicts_per_cycle_util =      14.7912
Reply_Bank_Level_Parallism =      20.5223
Reply_Network_in_buffer_full_per_cycle =       0.0000
Reply_Network_in_buffer_avg_util =       2.0797
Reply_Network_out_buffer_full_per_cycle =       0.0000
Reply_Network_out_buffer_avg_util =       0.2272
----------------------------END-of-Interconnect-DETAILS-------------------------
GLOBAL_TIMER=966694, gpu_tot_sim_cycle=966694, gpu_sim_cycle=7688
gpgpu_sim::update_stats() last_streamID=0, last_uid=10, start_cycle=959006, end_cycle=966693, sim cycle for this kernel is 7688


gpgpu_simulation_time = 0 days, 0 hrs, 41 min, 38 sec (2498 sec)
gpgpu_simulation_rate = 149725 (inst/sec)
gpgpu_simulation_rate = 386 (cycle/sec)
gpgpu_silicon_slowdown = 3748704x
GPGPU-Sim: *** simulation thread exiting ***
GPGPU-Sim: *** exit detected ***
