Accel-Sim [build accelsim-commit-912943dd3066cb45d21168b970186a9aed0d22f4_modified_0.0]

        *** GPGPU-Sim Simulator Version 4.2.0  [build gpgpu-sim_git-commit-57751eb230d8933beb7ab0fe87c2a333948ed9f7_modified_4.0] ***


GPGPU-Sim: Configuration options:

-save_embedded_ptx                      0 # saves ptx files embedded in binary as <n>.ptx
-keep                                   0 # keep intermediate files created by GPGPU-Sim when interfacing with external programs
-gpgpu_ptx_save_converted_ptxplus                    0 # Saved converted ptxplus to a file
-gpgpu_occupancy_sm_number                   70 # The SM number to pass to ptxas when getting register usage for computing GPU occupancy. This parameter is required in the config.
-ptx_opcode_latency_int      4,13,4,5,145,21 # Opcode latencies for integers <ADD,MAX,MUL,MAD,DIV,SHFL>Default 1,1,19,25,145,32
-ptx_opcode_latency_fp          4,13,4,5,39 # Opcode latencies for single precision floating points <ADD,MAX,MUL,MAD,DIV>Default 1,1,1,1,30
-ptx_opcode_latency_dp         8,19,8,8,330 # Opcode latencies for double precision floating points <ADD,MAX,MUL,MAD,DIV>Default 8,8,8,8,335
-ptx_opcode_latency_sfu                  100 # Opcode latencies for SFU instructionsDefault 8
-ptx_opcode_latency_tesnor                   64 # Opcode latencies for Tensor instructionsDefault 64
-ptx_opcode_initiation_int          2,2,2,2,8,4 # Opcode initiation intervals for integers <ADD,MAX,MUL,MAD,DIV,SHFL>Default 1,1,4,4,32,4
-ptx_opcode_initiation_fp            2,2,2,2,4 # Opcode initiation intervals for single precision floating points <ADD,MAX,MUL,MAD,DIV>Default 1,1,1,1,5
-ptx_opcode_initiation_dp          4,4,4,4,130 # Opcode initiation intervals for double precision floating points <ADD,MAX,MUL,MAD,DIV>Default 8,8,8,8,130
-ptx_opcode_initiation_sfu                    8 # Opcode initiation intervals for sfu instructionsDefault 8
-ptx_opcode_initiation_tensor                   64 # Opcode initiation intervals for tensor instructionsDefault 64
-cdp_latency         7200,8000,100,12000,1600 # CDP API latency <cudaStreamCreateWithFlags, cudaGetParameterBufferV2_init_perWarp, cudaGetParameterBufferV2_perKernel, cudaLaunchDeviceV2_init_perWarp, cudaLaunchDevicV2_perKernel>Default 7200,8000,100,12000,1600
-network_mode                           2 # Interconnection network mode
-inter_config_file                   mesh # Interconnection network config file
-icnt_in_buffer_limit                  512 # in_buffer_limit
-icnt_out_buffer_limit                  512 # out_buffer_limit
-icnt_subnets                           2 # subnets
-icnt_arbiter_algo                      1 # arbiter_algo
-icnt_verbose                           0 # inct_verbose
-icnt_grant_cycles                      1 # grant_cycles
-gpgpu_ptx_use_cuobjdump                    1 # Use cuobjdump to extract ptx and sass from binaries
-gpgpu_experimental_lib_support                    0 # Try to extract code from cuda libraries [Broken because of unknown cudaGetExportTable]
-checkpoint_option                      0 #  checkpointing flag (0 = no checkpoint)
-checkpoint_kernel                      1 #  checkpointing during execution of which kernel (1- 1st kernel)
-checkpoint_CTA                         0 #  checkpointing after # of CTA (< less than total CTA)
-resume_option                          0 #  resume flag (0 = no resume)
-resume_kernel                          0 #  Resume from which kernel (1= 1st kernel)
-resume_CTA                             0 #  resume from which CTA 
-checkpoint_CTA_t                       0 #  resume from which CTA 
-checkpoint_insn_Y                      0 #  resume from which CTA 
-gpgpu_ptx_convert_to_ptxplus                    0 # Convert SASS (native ISA) to ptxplus and run ptxplus
-gpgpu_ptx_force_max_capability                   70 # Force maximum compute capability
-gpgpu_ptx_inst_debug_to_file                    0 # Dump executed instructions' debug information to file
-gpgpu_ptx_inst_debug_file       inst_debug.txt # Executed instructions' debug output file
-gpgpu_ptx_inst_debug_thread_uid                    1 # Thread UID for executed instructions' debug output
-gpgpu_simd_model                       1 # 1 = post-dominator
-gpgpu_shader_core_pipeline              2048:32 # shader core pipeline config, i.e., {<nthread>:<warpsize>}
-gpgpu_tex_cache:l1  N:4:128:256,L:R:m:N:L,T:512:8,128:2 # per-shader L1 texture cache  (READ-ONLY) config  {<nsets>:<bsize>:<assoc>,<rep>:<wr>:<alloc>:<wr_alloc>,<mshr>:<N>:<merge>,<mq>:<rf>}
-gpgpu_const_cache:l1 N:128:64:8,L:R:f:N:L,S:2:64,4 # per-shader L1 constant memory cache  (READ-ONLY) config  {<nsets>:<bsize>:<assoc>,<rep>:<wr>:<alloc>:<wr_alloc>,<mshr>:<N>:<merge>,<mq>} 
-gpgpu_cache:il1     N:64:128:16,L:R:f:N:L,S:2:48,4 # shader L1 instruction cache config  {<nsets>:<bsize>:<assoc>,<rep>:<wr>:<alloc>:<wr_alloc>,<mshr>:<N>:<merge>,<mq>} 
-gpgpu_cache:dl1     S:4:128:64,L:T:m:L:L,A:512:8,16:0,32 # per-shader L1 data cache config  {<nsets>:<bsize>:<assoc>,<rep>:<wr>:<alloc>:<wr_alloc>,<mshr>:<N>:<merge>,<mq> | none}
-gpgpu_l1_cache_write_ratio                   25 # L1D write ratio
-gpgpu_l1_banks                         4 # The number of L1 cache banks
-gpgpu_l1_banks_byte_interleaving                   32 # l1 banks byte interleaving granularity
-gpgpu_l1_banks_hashing_function                    0 # l1 banks hashing function
-gpgpu_l1_latency                      20 # L1 Hit Latency
-gpgpu_smem_latency                    20 # smem Latency
-gpgpu_cache:dl1PrefL1                 none # per-shader L1 data cache config  {<nsets>:<bsize>:<assoc>,<rep>:<wr>:<alloc>:<wr_alloc>,<mshr>:<N>:<merge>,<mq> | none}
-gpgpu_cache:dl1PrefShared                 none # per-shader L1 data cache config  {<nsets>:<bsize>:<assoc>,<rep>:<wr>:<alloc>:<wr_alloc>,<mshr>:<N>:<merge>,<mq> | none}
-gpgpu_gmem_skip_L1D                    0 # global memory access skip L1D cache (implements -Xptxas -dlcm=cg, default=no skip)
-gpgpu_perfect_mem                      0 # enable perfect memory mode (no cache miss)
-n_regfile_gating_group                    4 # group of lanes that should be read/written together)
-gpgpu_clock_gated_reg_file                    0 # enable clock gated reg file for power calculations
-gpgpu_clock_gated_lanes                    1 # enable clock gated lanes for power calculations
-gpgpu_shader_registers                65536 # Number of registers per shader core. Limits number of concurrent CTAs. (default 8192)
-gpgpu_registers_per_block                65536 # Maximum number of registers per CTA. (default 8192)
-gpgpu_ignore_resources_limitation                    0 # gpgpu_ignore_resources_limitation (default 0)
-gpgpu_shader_cta                      32 # Maximum number of concurrent CTAs in shader (default 32)
-gpgpu_num_cta_barriers                   16 # Maximum number of named barriers per CTA (default 16)
-gpgpu_n_clusters                      80 # number of processing clusters
-gpgpu_n_cores_per_cluster                    1 # number of simd cores per cluster
-gpgpu_n_cluster_ejection_buffer_size                   32 # number of packets in ejection buffer
-gpgpu_n_ldst_response_buffer_size                    2 # number of response packets in ld/st unit ejection buffer
-gpgpu_shmem_per_block                65536 # Size of shared memory per thread block or CTA (default 48kB)
-gpgpu_shmem_size                   98304 # Size of shared memory per shader core (default 16kB)
-gpgpu_shmem_option       0,8,16,32,64,96 # Option list of shared memory sizes
-gpgpu_unified_l1d_size                  128 # Size of unified data cache(L1D + shared memory) in KB
-gpgpu_adaptive_cache_config                    1 # adaptive_cache_config
-gpgpu_shmem_sizeDefault                98304 # Size of shared memory per shader core (default 16kB)
-gpgpu_shmem_size_PrefL1                16384 # Size of shared memory per shader core (default 16kB)
-gpgpu_shmem_size_PrefShared                16384 # Size of shared memory per shader core (default 16kB)
-gpgpu_shmem_num_banks                   32 # Number of banks in the shared memory in each shader core (default 16)
-gpgpu_shmem_limited_broadcast                    0 # Limit shared memory to do one broadcast per cycle (default on)
-gpgpu_shmem_warp_parts                    1 # Number of portions a warp is divided into for shared memory bank conflict check 
-gpgpu_mem_unit_ports                    1 # The number of memory transactions allowed per core cycle
-gpgpu_shmem_warp_parts                    1 # Number of portions a warp is divided into for shared memory bank conflict check 
-gpgpu_warpdistro_shader                   -1 # Specify which shader core to collect the warp size distribution from
-gpgpu_warp_issue_shader                    0 # Specify which shader core to collect the warp issue distribution from
-gpgpu_local_mem_map                    1 # Mapping from local memory space address to simulated GPU physical address space (default = enabled)
-gpgpu_num_reg_banks                   16 # Number of register banks (default = 8)
-gpgpu_reg_bank_use_warp_id                    0 # Use warp ID in mapping registers to banks (default = off)
-gpgpu_sub_core_model                    1 # Sub Core Volta/Pascal model (default = off)
-gpgpu_enable_specialized_operand_collector                    0 # enable_specialized_operand_collector
-gpgpu_operand_collector_num_units_sp                    4 # number of collector units (default = 4)
-gpgpu_operand_collector_num_units_dp                    0 # number of collector units (default = 0)
-gpgpu_operand_collector_num_units_sfu                    4 # number of collector units (default = 4)
-gpgpu_operand_collector_num_units_int                    0 # number of collector units (default = 0)
-gpgpu_operand_collector_num_units_tensor_core                    4 # number of collector units (default = 4)
-gpgpu_operand_collector_num_units_mem                    2 # number of collector units (default = 2)
-gpgpu_operand_collector_num_units_gen                    8 # number of collector units (default = 0)
-gpgpu_operand_collector_num_in_ports_sp                    1 # number of collector unit in ports (default = 1)
-gpgpu_operand_collector_num_in_ports_dp                    0 # number of collector unit in ports (default = 0)
-gpgpu_operand_collector_num_in_ports_sfu                    1 # number of collector unit in ports (default = 1)
-gpgpu_operand_collector_num_in_ports_int                    0 # number of collector unit in ports (default = 0)
-gpgpu_operand_collector_num_in_ports_tensor_core                    1 # number of collector unit in ports (default = 1)
-gpgpu_operand_collector_num_in_ports_mem                    1 # number of collector unit in ports (default = 1)
-gpgpu_operand_collector_num_in_ports_gen                    8 # number of collector unit in ports (default = 0)
-gpgpu_operand_collector_num_out_ports_sp                    1 # number of collector unit in ports (default = 1)
-gpgpu_operand_collector_num_out_ports_dp                    0 # number of collector unit in ports (default = 0)
-gpgpu_operand_collector_num_out_ports_sfu                    1 # number of collector unit in ports (default = 1)
-gpgpu_operand_collector_num_out_ports_int                    0 # number of collector unit in ports (default = 0)
-gpgpu_operand_collector_num_out_ports_tensor_core                    1 # number of collector unit in ports (default = 1)
-gpgpu_operand_collector_num_out_ports_mem                    1 # number of collector unit in ports (default = 1)
-gpgpu_operand_collector_num_out_ports_gen                    8 # number of collector unit in ports (default = 0)
-gpgpu_coalesce_arch                   70 # Coalescing arch (GT200 = 13, Fermi = 20)
-gpgpu_num_sched_per_core                    4 # Number of warp schedulers per core
-gpgpu_max_insn_issue_per_warp                    1 # Max number of instructions that can be issued per warp in one cycle by scheduler (either 1 or 2)
-gpgpu_dual_issue_diff_exec_units                    1 # should dual issue use two different execution unit resources (Default = 1)
-gpgpu_simt_core_sim_order                    1 # Select the simulation order of cores in a cluster (0=Fix, 1=Round-Robin)
-gpgpu_pipeline_widths 4,4,4,4,4,4,4,4,4,4,8,4,4 # Pipeline widths ID_OC_SP,ID_OC_DP,ID_OC_INT,ID_OC_SFU,ID_OC_MEM,OC_EX_SP,OC_EX_DP,OC_EX_INT,OC_EX_SFU,OC_EX_MEM,EX_WB,ID_OC_TENSOR_CORE,OC_EX_TENSOR_CORE
-gpgpu_tensor_core_avail                    1 # Tensor Core Available (default=0)
-gpgpu_num_sp_units                     4 # Number of SP units (default=1)
-gpgpu_num_dp_units                     4 # Number of DP units (default=0)
-gpgpu_num_int_units                    4 # Number of INT units (default=0)
-gpgpu_num_sfu_units                    4 # Number of SF units (default=1)
-gpgpu_num_tensor_core_units                    4 # Number of tensor_core units (default=1)
-gpgpu_num_mem_units                    1 # Number if ldst units (default=1) WARNING: not hooked up to anything
-gpgpu_scheduler                      lrr # Scheduler configuration: < lrr | gto | two_level_active > If two_level_active:<num_active_warps>:<inner_prioritization>:<outer_prioritization>For complete list of prioritization values see shader.h enum scheduler_prioritization_typeDefault: gto
-gpgpu_concurrent_kernel_sm                    1 # Support concurrent kernels on a SM (default = disabled)
-gpgpu_perfect_inst_const_cache                    1 # perfect inst and const cache mode, so all inst and const hits in the cache(default = disabled)
-gpgpu_inst_fetch_throughput                    4 # the number of fetched intruction per warp each cycle
-gpgpu_reg_file_port_throughput                    2 # the number ports of the register file
-specialized_unit_1         1,4,4,4,4,BRA # specialized unit config {<enabled>,<num_units>:<latency>:<initiation>,<ID_OC_SPEC>:<OC_EX_SPEC>,<NAME>}
-specialized_unit_2       1,4,200,4,4,TEX # specialized unit config {<enabled>,<num_units>:<latency>:<initiation>,<ID_OC_SPEC>:<OC_EX_SPEC>,<NAME>}
-specialized_unit_3      1,4,8,4,4,TENSOR # specialized unit config {<enabled>,<num_units>:<latency>:<initiation>,<ID_OC_SPEC>:<OC_EX_SPEC>,<NAME>}
-specialized_unit_4         0,4,4,4,4,BRA # specialized unit config {<enabled>,<num_units>:<latency>:<initiation>,<ID_OC_SPEC>:<OC_EX_SPEC>,<NAME>}
-specialized_unit_5         0,4,4,4,4,BRA # specialized unit config {<enabled>,<num_units>:<latency>:<initiation>,<ID_OC_SPEC>:<OC_EX_SPEC>,<NAME>}
-specialized_unit_6         0,4,4,4,4,BRA # specialized unit config {<enabled>,<num_units>:<latency>:<initiation>,<ID_OC_SPEC>:<OC_EX_SPEC>,<NAME>}
-specialized_unit_7         0,4,4,4,4,BRA # specialized unit config {<enabled>,<num_units>:<latency>:<initiation>,<ID_OC_SPEC>:<OC_EX_SPEC>,<NAME>}
-specialized_unit_8         0,4,4,4,4,BRA # specialized unit config {<enabled>,<num_units>:<latency>:<initiation>,<ID_OC_SPEC>:<OC_EX_SPEC>,<NAME>}
-gpgpu_perf_sim_memcpy                    1 # Fill the L2 cache on memcpy
-gpgpu_simple_dram_model                    0 # simple_dram_model with fixed latency and BW
-gpgpu_dram_scheduler                    1 # 0 = fifo, 1 = FR-FCFS (defaul)
-gpgpu_dram_partition_queues          64:64:64:64 # i2$:$2d:d2$:$2i
-l2_ideal                               0 # Use a ideal L2 cache that always hit
-gpgpu_cache:dl2     S:32:128:24,L:B:m:L:P,A:192:4,32:0,32 # unified banked L2 data cache config  {<nsets>:<bsize>:<assoc>,<rep>:<wr>:<alloc>:<wr_alloc>,<mshr>:<N>:<merge>,<mq>}
-gpgpu_cache:dl2_texture_only                    0 # L2 cache used for texture only
-gpgpu_n_mem                           32 # number of memory modules (e.g. memory controllers) in gpu
-gpgpu_n_sub_partition_per_mchannel                    2 # number of memory subpartition in each memory module
-gpgpu_n_mem_per_ctrlr                    1 # number of memory chips per memory controller
-gpgpu_memlatency_stat                   14 # track and display latency statistics 0x2 enables MC, 0x4 enables queue logs
-gpgpu_frfcfs_dram_sched_queue_size                   64 # 0 = unlimited (default); # entries per chip
-gpgpu_dram_return_queue_size                  192 # 0 = unlimited (default); # entries per chip
-gpgpu_dram_buswidth                   16 # default = 4 bytes (8 bytes per cycle at DDR)
-gpgpu_dram_burst_length                    2 # Burst length of each DRAM request (default = 4 data bus cycle)
-dram_data_command_freq_ratio                    2 # Frequency ratio between DRAM data bus and command bus (default = 2 times, i.e. DDR)
-gpgpu_dram_timing_opt nbk=16:CCD=1:RRD=3:RCD=12:RAS=28:RP=12:RC=40: CL=12:WL=2:CDLR=3:WR=10:nbkgrp=4:CCDL=2:RTPL=3 # DRAM timing parameters = {nbk:tCCD:tRRD:tRCD:tRAS:tRP:tRC:CL:WL:tCDLR:tWR:nbkgrp:tCCDL:tRTPL}
-gpgpu_l2_rop_latency                  160 # ROP queue latency (default 85)
-dram_latency                         100 # DRAM latency (default 30)
-dram_dual_bus_interface                    1 # dual_bus_interface (default = 0) 
-dram_bnk_indexing_policy                    0 # dram_bnk_indexing_policy (0 = normal indexing, 1 = Xoring with the higher bits) (Default = 0)
-dram_bnkgrp_indexing_policy                    1 # dram_bnkgrp_indexing_policy (0 = take higher bits, 1 = take lower bits) (Default = 0)
-dram_seperate_write_queue_enable                    0 # Seperate_Write_Queue_Enable
-dram_write_queue_size             32:28:16 # Write_Queue_Size
-dram_elimnate_rw_turnaround                    0 # elimnate_rw_turnaround i.e set tWTR and tRTW = 0
-icnt_flit_size                        40 # icnt_flit_size
-gpgpu_mem_addr_mapping dramid@8;00000000.00000000.00000000.00000000.0000RRRR.RRRRRRRR.RBBBCCCB.CCCSSSSS # mapping memory address to dram model {dramid@<start bit>;<memory address map>}
-gpgpu_mem_addr_test                    0 # run sweep test to check address mapping for aliased address
-gpgpu_mem_address_mask                    1 # 0 = old addressing mask, 1 = new addressing mask, 2 = new add. mask + flipped bank sel and chip sel bits
-gpgpu_memory_partition_indexing                    2 # 0 = no indexing, 1 = bitwise xoring, 2 = IPoly, 3 = custom indexing
-accelwattch_xml_file accelwattch_sass_sim.xml # AccelWattch XML file
-power_simulation_enabled                    0 # Turn on power simulator (1=On, 0=Off)
-power_per_cycle_dump                    0 # Dump detailed power output each cycle
-hw_perf_file_name            hw_perf.csv # Hardware Performance Statistics file
-hw_perf_bench_name                       # Kernel Name in Hardware Performance Statistics file
-power_simulation_mode                    0 # Switch performance counter input for power simulation (0=Sim, 1=HW, 2=HW-Sim Hybrid)
-dvfs_enabled                           0 # Turn on DVFS for power model
-aggregate_power_stats                    0 # Accumulate power across all kernels
-accelwattch_hybrid_perfsim_L1_RH                    0 # Get L1 Read Hits for Accelwattch-Hybrid from Accel-Sim
-accelwattch_hybrid_perfsim_L1_RM                    0 # Get L1 Read Misses for Accelwattch-Hybrid from Accel-Sim
-accelwattch_hybrid_perfsim_L1_WH                    0 # Get L1 Write Hits for Accelwattch-Hybrid from Accel-Sim
-accelwattch_hybrid_perfsim_L1_WM                    0 # Get L1 Write Misses for Accelwattch-Hybrid from Accel-Sim
-accelwattch_hybrid_perfsim_L2_RH                    0 # Get L2 Read Hits for Accelwattch-Hybrid from Accel-Sim
-accelwattch_hybrid_perfsim_L2_RM                    0 # Get L2 Read Misses for Accelwattch-Hybrid from Accel-Sim
-accelwattch_hybrid_perfsim_L2_WH                    0 # Get L2 Write Hits for Accelwattch-Hybrid from Accel-Sim
-accelwattch_hybrid_perfsim_L2_WM                    0 # Get L2 Write Misses for Accelwattch-Hybrid from Accel-Sim
-accelwattch_hybrid_perfsim_CC_ACC                    0 # Get Constant Cache Acesses for Accelwattch-Hybrid from Accel-Sim
-accelwattch_hybrid_perfsim_SHARED_ACC                    0 # Get Shared Memory Acesses for Accelwattch-Hybrid from Accel-Sim
-accelwattch_hybrid_perfsim_DRAM_RD                    0 # Get DRAM Reads for Accelwattch-Hybrid from Accel-Sim
-accelwattch_hybrid_perfsim_DRAM_WR                    0 # Get DRAM Writes for Accelwattch-Hybrid from Accel-Sim
-accelwattch_hybrid_perfsim_NOC                    0 # Get Interconnect Acesses for Accelwattch-Hybrid from Accel-Sim
-accelwattch_hybrid_perfsim_PIPE_DUTY                    0 # Get Pipeline Duty Cycle Acesses for Accelwattch-Hybrid from Accel-Sim
-accelwattch_hybrid_perfsim_NUM_SM_IDLE                    0 # Get Number of Idle SMs for Accelwattch-Hybrid from Accel-Sim
-accelwattch_hybrid_perfsim_CYCLES                    0 # Get Executed Cycles for Accelwattch-Hybrid from Accel-Sim
-accelwattch_hybrid_perfsim_VOLTAGE                    0 # Get Chip Voltage for Accelwattch-Hybrid from Accel-Sim
-power_trace_enabled                    0 # produce a file for the power trace (1=On, 0=Off)
-power_trace_zlevel                     6 # Compression level of the power trace output log (0=no comp, 9=highest)
-steady_power_levels_enabled                    0 # produce a file for the steady power levels (1=On, 0=Off)
-steady_state_definition                  8:4 # allowed deviation:number of samples
-gpgpu_max_cycle                        0 # terminates gpu simulation early (0 = no limit)
-gpgpu_max_insn                         0 # terminates gpu simulation early (0 = no limit)
-gpgpu_max_cta                          0 # terminates gpu simulation early (0 = no limit)
-gpgpu_max_completed_cta                    0 # terminates gpu simulation early (0 = no limit)
-gpgpu_runtime_stat                   500 # display runtime statistics such as dram utilization {<freq>:<flag>}
-liveness_message_freq                    1 # Minimum number of seconds between simulation liveness messages (0 = always print)
-gpgpu_compute_capability_major                    7 # Major compute capability version number
-gpgpu_compute_capability_minor                    0 # Minor compute capability version number
-gpgpu_flush_l1_cache                    1 # Flush L1 cache at the end of each kernel call
-gpgpu_flush_l2_cache                    0 # Flush L2 cache at the end of each kernel call
-gpgpu_deadlock_detect                    1 # Stop the simulation at deadlock (1=on (default), 0=off)
-gpgpu_ptx_instruction_classification                    0 # if enabled will classify ptx instruction types per kernel (Max 255 kernels now)
-gpgpu_ptx_sim_mode                     0 # Select between Performance (default) or Functional simulation (1)
-gpgpu_clock_domains 1447.0:1447.0:1447.0:850.0 # Clock Domain Frequencies in MhZ {<Core Clock>:<ICNT Clock>:<L2 Clock>:<DRAM Clock>}
-gpgpu_max_concurrent_kernel                  128 # maximum kernels that can run concurrently on GPU, set this value according to max resident grids for your compute capability
-gpgpu_cflog_interval                    0 # Interval between each snapshot in control flow logger
-visualizer_enabled                     0 # Turn on visualizer output (1=On, 0=Off)
-visualizer_outputfile                 NULL # Specifies the output log file for visualizer
-visualizer_zlevel                      6 # Compression level of the visualizer output log (0=no comp, 9=highest)
-gpgpu_stack_size_limit                 1024 # GPU thread stack size
-gpgpu_heap_size_limit              8388608 # GPU malloc heap size 
-gpgpu_runtime_sync_depth_limit                    2 # GPU device runtime synchronize depth
-gpgpu_runtime_pending_launch_count_limit                 2048 # GPU device runtime pending launch count
-trace_enabled                          0 # Turn on traces
-trace_components                    none # comma seperated list of traces to enable. Complete list found in trace_streams.tup. Default none
-trace_sampling_core                    0 # The core which is printed using CORE_DPRINTF. Default 0
-trace_sampling_memory_partition                   -1 # The memory partition which is printed using MEMPART_DPRINTF. Default -1 (i.e. all)
-enable_ptx_file_line_stats                    1 # Turn on PTX source line statistic profiling. (1 = On)
-ptx_line_stats_filename gpgpu_inst_stats.txt # Output file for PTX source line statistics.
-gpgpu_kernel_launch_latency                 5000 # Kernel launch latency in cycles. Default: 0
-gpgpu_cdp_enabled                      0 # Turn on CDP
-gpgpu_TB_launch_latency                    0 # thread block launch latency in cycles. Default: 0
-trace               /nobackup/spati/accelsim/traces/hw_run/deepbench/11.0/gemm_bench-tencore/inference_half_35_1500_2560_0_0/traces/kernelslist.g # traces kernel filetraces kernel file directory
-trace_opcode_latency_initiation_int                  2,2 # Opcode latencies and initiation for integers in trace driven mode <latency,initiation>
-trace_opcode_latency_initiation_sp                  2,2 # Opcode latencies and initiation for sp in trace driven mode <latency,initiation>
-trace_opcode_latency_initiation_dp                  8,4 # Opcode latencies and initiation for dp in trace driven mode <latency,initiation>
-trace_opcode_latency_initiation_sfu                 20,8 # Opcode latencies and initiation for sfu in trace driven mode <latency,initiation>
-trace_opcode_latency_initiation_tensor                  2,2 # Opcode latencies and initiation for tensor in trace driven mode <latency,initiation>
-trace_opcode_latency_initiation_spec_op_1                  4,4 # specialized unit config <latency,initiation>
-trace_opcode_latency_initiation_spec_op_2                200,4 # specialized unit config <latency,initiation>
-trace_opcode_latency_initiation_spec_op_3                  2,2 # specialized unit config <latency,initiation>
-trace_opcode_latency_initiation_spec_op_4                  4,4 # specialized unit config <latency,initiation>
-trace_opcode_latency_initiation_spec_op_5                  4,4 # specialized unit config <latency,initiation>
-trace_opcode_latency_initiation_spec_op_6                  4,4 # specialized unit config <latency,initiation>
-trace_opcode_latency_initiation_spec_op_7                  4,4 # specialized unit config <latency,initiation>
-trace_opcode_latency_initiation_spec_op_8                  4,4 # specialized unit config <latency,initiation>
DRAM Timing Options:
nbk                                    16 # number of banks
CCD                                     1 # column to column delay
RRD                                     3 # minimal delay between activation of rows in different banks
RCD                                    12 # row to column delay
RAS                                    28 # time needed to activate row
RP                                     12 # time needed to precharge (deactivate) row
RC                                     40 # row cycle time
CDLR                                    3 # switching from write to read (changes tWTR)
WR                                     10 # last data-in to row precharge
CL                                     12 # CAS latency
WL                                      2 # Write latency
nbkgrp                                  4 # number of bank groups
CCDL                                    2 # column to column delay between accesses to different bank groups
RTPL                                    3 # read to precharge delay between accesses to different bank groups
Total number of memory sub partition = 64
addr_dec_mask[CHIP]  = 0000000000001f00 	high:13 low:8
addr_dec_mask[BK]    = 00000000000e2000 	high:20 low:13
addr_dec_mask[ROW]   = 00000001fff00000 	high:33 low:20
addr_dec_mask[COL]   = 000000000001c0ff 	high:17 low:0
addr_dec_mask[BURST] = 000000000000001f 	high:5 low:0
sub_partition_id_mask = 0000000000002000
GPGPU-Sim uArch: clock freqs: 1447000000.000000:1447000000.000000:1447000000.000000:850000000.000000
GPGPU-Sim uArch: clock periods: 0.00000000069108500346:0.00000000069108500346:0.00000000069108500346:0.00000000117647058824
*** Initializing Memory Statistics ***
GPGPU-Sim uArch: performance model initialization complete.
launching memcpy command : MemcpyHtoD,0x00007f70ad700000,112
Processing kernel /nobackup/spati/accelsim/traces/hw_run/deepbench/11.0/gemm_bench-tencore/inference_half_35_1500_2560_0_0/traces/kernel-1.traceg
-kernel name = _Z20generate_seed_pseudoyyy14curandOrderingP17curandStateXORWOWPj
-kernel id = 1
-grid dim = (64,1,1)
-block dim = (64,1,1)
-shmem = 0
-nregs = 48
-binary version = 70
-cuda stream id = 0
-shmem base_addr = 0x00007f70e2000000
-local mem base_addr = 0x00007f70e4000000
-nvbit version = 1.4
-accelsim tracer version = 3
Header info loaded for kernel command : /nobackup/spati/accelsim/traces/hw_run/deepbench/11.0/gemm_bench-tencore/inference_half_35_1500_2560_0_0/traces/kernel-1.traceg
Processing kernel /nobackup/spati/accelsim/traces/hw_run/deepbench/11.0/gemm_bench-tencore/inference_half_35_1500_2560_0_0/traces/kernel-2.traceg
-kernel name = _Z13gen_sequencedI17curandStateXORWOWfiXadL_Z21curand_uniform_noargsIS0_EfPT_iEE10rng_configIS0_L14curandOrdering101EEEvS3_PT0_mmT1_
-kernel id = 2
-grid dim = (64,1,1)
-block dim = (64,1,1)
-shmem = 0
-nregs = 32
-binary version = 70
-cuda stream id = 0
-shmem base_addr = 0x00007f70e2000000
-local mem base_addr = 0x00007f70e4000000
-nvbit version = 1.4
-accelsim tracer version = 3
Header info loaded for kernel command : /nobackup/spati/accelsim/traces/hw_run/deepbench/11.0/gemm_bench-tencore/inference_half_35_1500_2560_0_0/traces/kernel-2.traceg
Processing kernel /nobackup/spati/accelsim/traces/hw_run/deepbench/11.0/gemm_bench-tencore/inference_half_35_1500_2560_0_0/traces/kernel-3.traceg
-kernel name = _ZN6thrust8cuda_cub4core13_kernel_agentINS0_14__parallel_for16ParallelForAgentINS0_11__transform17unary_transform_fINS_10device_ptrIfEENS7_ItEENS5_14no_stencil_tagENS_8identityIfEENS5_21always_true_predicateEEElEESE_lEEvT0_T1_
-kernel id = 3
-grid dim = (175,1,1)
-block dim = (256,1,1)
-shmem = 0
-nregs = 12
-binary version = 70
-cuda stream id = 1
-shmem base_addr = 0x00007f70e2000000
-local mem base_addr = 0x00007f70e4000000
-nvbit version = 1.4
-accelsim tracer version = 3
Header info loaded for kernel command : /nobackup/spati/accelsim/traces/hw_run/deepbench/11.0/gemm_bench-tencore/inference_half_35_1500_2560_0_0/traces/kernel-3.traceg
Processing kernel /nobackup/spati/accelsim/traces/hw_run/deepbench/11.0/gemm_bench-tencore/inference_half_35_1500_2560_0_0/traces/kernel-4.traceg
-kernel name = _Z13gen_sequencedI17curandStateXORWOWfiXadL_Z21curand_uniform_noargsIS0_EfPT_iEE10rng_configIS0_L14curandOrdering101EEEvS3_PT0_mmT1_
-kernel id = 4
-grid dim = (64,1,1)
-block dim = (64,1,1)
-shmem = 0
-nregs = 32
-binary version = 70
-cuda stream id = 0
-shmem base_addr = 0x00007f70e2000000
-local mem base_addr = 0x00007f70e4000000
-nvbit version = 1.4
-accelsim tracer version = 3
Header info loaded for kernel command : /nobackup/spati/accelsim/traces/hw_run/deepbench/11.0/gemm_bench-tencore/inference_half_35_1500_2560_0_0/traces/kernel-4.traceg
Processing kernel /nobackup/spati/accelsim/traces/hw_run/deepbench/11.0/gemm_bench-tencore/inference_half_35_1500_2560_0_0/traces/kernel-5.traceg
-kernel name = _ZN6thrust8cuda_cub4core13_kernel_agentINS0_14__parallel_for16ParallelForAgentINS0_11__transform17unary_transform_fINS_10device_ptrIfEENS7_ItEENS5_14no_stencil_tagENS_8identityIfEENS5_21always_true_predicateEEElEESE_lEEvT0_T1_
-kernel id = 5
-grid dim = (7500,1,1)
-block dim = (256,1,1)
-shmem = 0
-nregs = 12
-binary version = 70
-cuda stream id = 1
-shmem base_addr = 0x00007f70e2000000
-local mem base_addr = 0x00007f70e4000000
-nvbit version = 1.4
-accelsim tracer version = 3
Header info loaded for kernel command : /nobackup/spati/accelsim/traces/hw_run/deepbench/11.0/gemm_bench-tencore/inference_half_35_1500_2560_0_0/traces/kernel-5.traceg
Processing kernel /nobackup/spati/accelsim/traces/hw_run/deepbench/11.0/gemm_bench-tencore/inference_half_35_1500_2560_0_0/traces/kernel-6.traceg
-kernel name = _ZN6thrust8cuda_cub4core13_kernel_agentINS0_14__parallel_for16ParallelForAgentINS0_6__fill7functorINS_10device_ptrItEEfEElEES9_lEEvT0_T1_
-kernel id = 6
-grid dim = (103,1,1)
-block dim = (256,1,1)
-shmem = 0
-nregs = 12
-binary version = 70
-cuda stream id = 1
-shmem base_addr = 0x00007f70e2000000
-local mem base_addr = 0x00007f70e4000000
-nvbit version = 1.4
-accelsim tracer version = 3
Header info loaded for kernel command : /nobackup/spati/accelsim/traces/hw_run/deepbench/11.0/gemm_bench-tencore/inference_half_35_1500_2560_0_0/traces/kernel-6.traceg
Processing kernel /nobackup/spati/accelsim/traces/hw_run/deepbench/11.0/gemm_bench-tencore/inference_half_35_1500_2560_0_0/traces/kernel-7.traceg
-kernel name = _ZN7cutlass6KernelI44cutlass_70_tensorop_h884gemm_64x64_nn_align1EEvNT_6ParamsE
-kernel id = 7
-grid dim = (24,1,11)
-block dim = (128,1,1)
-shmem = 16384
-nregs = 134
-binary version = 70
-cuda stream id = 0
-shmem base_addr = 0x00007f70e2000000
-local mem base_addr = 0x00007f70e4000000
-nvbit version = 1.4
-accelsim tracer version = 3
Header info loaded for kernel command : /nobackup/spati/accelsim/traces/hw_run/deepbench/11.0/gemm_bench-tencore/inference_half_35_1500_2560_0_0/traces/kernel-7.traceg
Processing kernel /nobackup/spati/accelsim/traces/hw_run/deepbench/11.0/gemm_bench-tencore/inference_half_35_1500_2560_0_0/traces/kernel-8.traceg
-kernel name = _Z19splitKreduce_kernelI6__halfS0_S0_Ev18cublasSplitKParamsIT1_EPKT_PKT0_PS7_PKS2_SC_
-kernel id = 8
-grid dim = (411,1,1)
-block dim = (128,1,1)
-shmem = 0
-nregs = 32
-binary version = 70
-cuda stream id = 0
-shmem base_addr = 0x00007f70e2000000
-local mem base_addr = 0x00007f70e4000000
-nvbit version = 1.4
-accelsim tracer version = 3
Header info loaded for kernel command : /nobackup/spati/accelsim/traces/hw_run/deepbench/11.0/gemm_bench-tencore/inference_half_35_1500_2560_0_0/traces/kernel-8.traceg
Processing kernel /nobackup/spati/accelsim/traces/hw_run/deepbench/11.0/gemm_bench-tencore/inference_half_35_1500_2560_0_0/traces/kernel-9.traceg
-kernel name = _ZN7cutlass6KernelI44cutlass_70_tensorop_h884gemm_64x64_nn_align1EEvNT_6ParamsE
-kernel id = 9
-grid dim = (24,1,11)
-block dim = (128,1,1)
-shmem = 16384
-nregs = 134
-binary version = 70
-cuda stream id = 0
-shmem base_addr = 0x00007f70e2000000
-local mem base_addr = 0x00007f70e4000000
-nvbit version = 1.4
-accelsim tracer version = 3
Header info loaded for kernel command : /nobackup/spati/accelsim/traces/hw_run/deepbench/11.0/gemm_bench-tencore/inference_half_35_1500_2560_0_0/traces/kernel-9.traceg
Processing kernel /nobackup/spati/accelsim/traces/hw_run/deepbench/11.0/gemm_bench-tencore/inference_half_35_1500_2560_0_0/traces/kernel-10.traceg
-kernel name = _Z19splitKreduce_kernelI6__halfS0_S0_Ev18cublasSplitKParamsIT1_EPKT_PKT0_PS7_PKS2_SC_
-kernel id = 10
-grid dim = (411,1,1)
-block dim = (128,1,1)
-shmem = 0
-nregs = 32
-binary version = 70
-cuda stream id = 0
-shmem base_addr = 0x00007f70e2000000
-local mem base_addr = 0x00007f70e4000000
-nvbit version = 1.4
-accelsim tracer version = 3
Header info loaded for kernel command : /nobackup/spati/accelsim/traces/hw_run/deepbench/11.0/gemm_bench-tencore/inference_half_35_1500_2560_0_0/traces/kernel-10.traceg
launching kernel name: _Z20generate_seed_pseudoyyy14curandOrderingP17curandStateXORWOWPj uid: 1 cuda_stream_id: 0
gpgpu_sim::launch: kernelID = 1, streamID = 0
gpgpu_sim::launch start_cycle=0, end_cycle=0
launching kernel name: _ZN6thrust8cuda_cub4core13_kernel_agentINS0_14__parallel_for16ParallelForAgentINS0_11__transform17unary_transform_fINS_10device_ptrIfEENS7_ItEENS5_14no_stencil_tagENS_8identityIfEENS5_21always_true_predicateEEElEESE_lEEvT0_T1_ uid: 3 cuda_stream_id: 1
gpgpu_sim::launch: kernelID = 3, streamID = 1
gpgpu_sim::launch start_cycle=0, end_cycle=0
GPGPU-Sim uArch: CTA/core = 21, limited by: regs
GPGPU-Sim: Reconfigure L1 cache to 128KB
thread block = 0,0,0
thread block = 1,0,0
thread block = 2,0,0
thread block = 3,0,0
thread block = 4,0,0
thread block = 5,0,0
thread block = 6,0,0
thread block = 7,0,0
thread block = 8,0,0
thread block = 9,0,0
thread block = 10,0,0
thread block = 11,0,0
thread block = 12,0,0
thread block = 13,0,0
thread block = 14,0,0
thread block = 15,0,0
thread block = 16,0,0
thread block = 17,0,0
thread block = 18,0,0
thread block = 19,0,0
thread block = 20,0,0
thread block = 21,0,0
thread block = 22,0,0
thread block = 23,0,0
thread block = 24,0,0
thread block = 25,0,0
thread block = 26,0,0
thread block = 27,0,0
thread block = 28,0,0
thread block = 29,0,0
thread block = 30,0,0
thread block = 31,0,0
thread block = 32,0,0
thread block = 33,0,0
thread block = 34,0,0
thread block = 35,0,0
thread block = 36,0,0
thread block = 37,0,0
thread block = 38,0,0
thread block = 39,0,0
thread block = 40,0,0
thread block = 41,0,0
thread block = 42,0,0
thread block = 43,0,0
thread block = 44,0,0
thread block = 45,0,0
thread block = 46,0,0
thread block = 47,0,0
thread block = 48,0,0
thread block = 49,0,0
thread block = 50,0,0
thread block = 51,0,0
thread block = 52,0,0
thread block = 53,0,0
thread block = 54,0,0
thread block = 55,0,0
thread block = 56,0,0
thread block = 57,0,0
thread block = 58,0,0
thread block = 59,0,0
thread block = 60,0,0
thread block = 61,0,0
thread block = 62,0,0
thread block = 63,0,0
GPGPU-Sim uArch: CTA/core = 8, limited by: threads
GPGPU-Sim: Reconfigure L1 cache to 128KB
thread block = 0,0,0
thread block = 1,0,0
thread block = 2,0,0
thread block = 3,0,0
thread block = 4,0,0
thread block = 5,0,0
thread block = 6,0,0
thread block = 7,0,0
thread block = 8,0,0
thread block = 9,0,0
thread block = 10,0,0
thread block = 11,0,0
thread block = 12,0,0
thread block = 13,0,0
thread block = 14,0,0
thread block = 15,0,0
thread block = 16,0,0
thread block = 17,0,0
thread block = 18,0,0
thread block = 19,0,0
thread block = 20,0,0
thread block = 21,0,0
thread block = 22,0,0
thread block = 23,0,0
thread block = 24,0,0
thread block = 25,0,0
thread block = 26,0,0
thread block = 27,0,0
thread block = 28,0,0
thread block = 29,0,0
thread block = 30,0,0
thread block = 31,0,0
thread block = 32,0,0
thread block = 33,0,0
thread block = 34,0,0
thread block = 35,0,0
thread block = 36,0,0
thread block = 37,0,0
thread block = 38,0,0
thread block = 39,0,0
thread block = 40,0,0
thread block = 41,0,0
thread block = 42,0,0
thread block = 43,0,0
thread block = 44,0,0
thread block = 45,0,0
thread block = 46,0,0
thread block = 47,0,0
thread block = 48,0,0
thread block = 49,0,0
thread block = 50,0,0
thread block = 51,0,0
thread block = 52,0,0
thread block = 53,0,0
thread block = 54,0,0
thread block = 55,0,0
thread block = 56,0,0
thread block = 57,0,0
thread block = 58,0,0
thread block = 59,0,0
thread block = 60,0,0
thread block = 61,0,0
thread block = 62,0,0
thread block = 63,0,0
thread block = 64,0,0
thread block = 65,0,0
thread block = 66,0,0
thread block = 67,0,0
thread block = 68,0,0
thread block = 69,0,0
thread block = 70,0,0
thread block = 71,0,0
thread block = 72,0,0
thread block = 73,0,0
thread block = 74,0,0
thread block = 75,0,0
thread block = 76,0,0
thread block = 77,0,0
thread block = 78,0,0
thread block = 79,0,0
thread block = 80,0,0
thread block = 81,0,0
thread block = 82,0,0
thread block = 83,0,0
thread block = 84,0,0
thread block = 85,0,0
thread block = 86,0,0
thread block = 87,0,0
thread block = 88,0,0
thread block = 89,0,0
thread block = 90,0,0
thread block = 91,0,0
thread block = 92,0,0
thread block = 93,0,0
thread block = 94,0,0
thread block = 95,0,0
thread block = 96,0,0
thread block = 97,0,0
thread block = 98,0,0
thread block = 99,0,0
thread block = 100,0,0
thread block = 101,0,0
thread block = 102,0,0
thread block = 103,0,0
thread block = 104,0,0
thread block = 105,0,0
thread block = 106,0,0
thread block = 107,0,0
thread block = 108,0,0
thread block = 109,0,0
thread block = 110,0,0
thread block = 111,0,0
thread block = 112,0,0
thread block = 113,0,0
thread block = 114,0,0
thread block = 115,0,0
thread block = 116,0,0
thread block = 117,0,0
thread block = 118,0,0
thread block = 119,0,0
thread block = 120,0,0
thread block = 121,0,0
thread block = 122,0,0
thread block = 123,0,0
thread block = 124,0,0
thread block = 125,0,0
thread block = 126,0,0
thread block = 127,0,0
thread block = 128,0,0
thread block = 129,0,0
thread block = 130,0,0
thread block = 131,0,0
thread block = 132,0,0
thread block = 133,0,0
thread block = 134,0,0
thread block = 135,0,0
thread block = 136,0,0
thread block = 137,0,0
thread block = 138,0,0
thread block = 139,0,0
thread block = 140,0,0
thread block = 141,0,0
thread block = 142,0,0
thread block = 143,0,0
thread block = 144,0,0
thread block = 145,0,0
thread block = 146,0,0
thread block = 147,0,0
thread block = 148,0,0
thread block = 149,0,0
thread block = 150,0,0
thread block = 151,0,0
thread block = 152,0,0
thread block = 153,0,0
thread block = 154,0,0
thread block = 155,0,0
thread block = 156,0,0
thread block = 157,0,0
thread block = 158,0,0
thread block = 159,0,0
thread block = 160,0,0
thread block = 161,0,0
thread block = 162,0,0
thread block = 163,0,0
thread block = 164,0,0
thread block = 165,0,0
thread block = 166,0,0
thread block = 167,0,0
thread block = 168,0,0
thread block = 169,0,0
thread block = 170,0,0
thread block = 171,0,0
thread block = 172,0,0
thread block = 173,0,0
thread block = 174,0,0
gpgpu_sim::set_kernel_done start_cycle=0, end_cycle=6688
Destroy streams for kernel 3: size 0
kernel_name = _Z20generate_seed_pseudoyyy14curandOrderingP17curandStateXORWOWPj _ZN6thrust8cuda_cub4core13_kernel_agentINS0_14__parallel_for16ParallelForAgentINS0_11__transform17unary_transform_fINS_10device_ptrIfEENS7_ItEENS5_14no_stencil_tagENS_8identityIfEENS5_21always_true_predicateEEElEESE_lEEvT0_T1_ 
kernel_launch_uid = 1 3 
gpu_sim_cycle = 6689
gpu_sim_insn = 1426192
gpu_ipc =     213.2145
gpu_tot_sim_cycle = 6689
gpu_tot_sim_insn = 1426192
gpu_tot_ipc =     213.2145
gpu_tot_issued_cta = 239
gpu_occupancy = 26.8340% 
gpu_tot_occupancy = 26.8340% 
max_total_param_size = 0
gpu_stall_dramfull = 0
gpu_stall_icnt2sh    = 0
partiton_level_parallism =       7.8276
partiton_level_parallism_total  =       7.8276
partiton_level_parallism_util =      34.3563
partiton_level_parallism_util_total  =      34.3563
L2_BW  =     330.2405 GB/Sec
L2_BW_total  =     330.2405 GB/Sec
gpu_total_sim_rate=47539

========= Core cache stats =========
L1I_cache:
	L1I_total_cache_accesses = 0
	L1I_total_cache_misses = 0
	L1I_total_cache_pending_hits = 0
	L1I_total_cache_reservation_fails = 0
L1D_cache:
	L1D_cache_core[0]: Access = 876, Miss = 472, Miss_rate = 0.539, Pending_hits = 64, Reservation_fails = 749
	L1D_cache_core[1]: Access = 997, Miss = 480, Miss_rate = 0.481, Pending_hits = 64, Reservation_fails = 869
	L1D_cache_core[2]: Access = 1002, Miss = 480, Miss_rate = 0.479, Pending_hits = 64, Reservation_fails = 930
	L1D_cache_core[3]: Access = 993, Miss = 480, Miss_rate = 0.483, Pending_hits = 64, Reservation_fails = 868
	L1D_cache_core[4]: Access = 886, Miss = 464, Miss_rate = 0.524, Pending_hits = 64, Reservation_fails = 837
	L1D_cache_core[5]: Access = 955, Miss = 479, Miss_rate = 0.502, Pending_hits = 64, Reservation_fails = 893
	L1D_cache_core[6]: Access = 949, Miss = 476, Miss_rate = 0.502, Pending_hits = 64, Reservation_fails = 822
	L1D_cache_core[7]: Access = 980, Miss = 483, Miss_rate = 0.493, Pending_hits = 64, Reservation_fails = 966
	L1D_cache_core[8]: Access = 979, Miss = 480, Miss_rate = 0.490, Pending_hits = 64, Reservation_fails = 898
	L1D_cache_core[9]: Access = 966, Miss = 482, Miss_rate = 0.499, Pending_hits = 64, Reservation_fails = 947
	L1D_cache_core[10]: Access = 985, Miss = 480, Miss_rate = 0.487, Pending_hits = 64, Reservation_fails = 862
	L1D_cache_core[11]: Access = 884, Miss = 472, Miss_rate = 0.534, Pending_hits = 64, Reservation_fails = 764
	L1D_cache_core[12]: Access = 914, Miss = 473, Miss_rate = 0.518, Pending_hits = 64, Reservation_fails = 805
	L1D_cache_core[13]: Access = 926, Miss = 475, Miss_rate = 0.513, Pending_hits = 64, Reservation_fails = 768
	L1D_cache_core[14]: Access = 894, Miss = 467, Miss_rate = 0.522, Pending_hits = 64, Reservation_fails = 869
	L1D_cache_core[15]: Access = 929, Miss = 474, Miss_rate = 0.510, Pending_hits = 64, Reservation_fails = 826
	L1D_cache_core[16]: Access = 911, Miss = 474, Miss_rate = 0.520, Pending_hits = 64, Reservation_fails = 797
	L1D_cache_core[17]: Access = 854, Miss = 471, Miss_rate = 0.552, Pending_hits = 64, Reservation_fails = 784
	L1D_cache_core[18]: Access = 854, Miss = 471, Miss_rate = 0.552, Pending_hits = 64, Reservation_fails = 746
	L1D_cache_core[19]: Access = 832, Miss = 464, Miss_rate = 0.558, Pending_hits = 64, Reservation_fails = 729
	L1D_cache_core[20]: Access = 919, Miss = 470, Miss_rate = 0.511, Pending_hits = 64, Reservation_fails = 876
	L1D_cache_core[21]: Access = 875, Miss = 472, Miss_rate = 0.539, Pending_hits = 64, Reservation_fails = 760
	L1D_cache_core[22]: Access = 936, Miss = 475, Miss_rate = 0.507, Pending_hits = 64, Reservation_fails = 865
	L1D_cache_core[23]: Access = 974, Miss = 479, Miss_rate = 0.492, Pending_hits = 64, Reservation_fails = 925
	L1D_cache_core[24]: Access = 957, Miss = 479, Miss_rate = 0.501, Pending_hits = 64, Reservation_fails = 832
	L1D_cache_core[25]: Access = 943, Miss = 477, Miss_rate = 0.506, Pending_hits = 64, Reservation_fails = 853
	L1D_cache_core[26]: Access = 935, Miss = 476, Miss_rate = 0.509, Pending_hits = 64, Reservation_fails = 802
	L1D_cache_core[27]: Access = 898, Miss = 480, Miss_rate = 0.535, Pending_hits = 64, Reservation_fails = 738
	L1D_cache_core[28]: Access = 889, Miss = 471, Miss_rate = 0.530, Pending_hits = 64, Reservation_fails = 861
	L1D_cache_core[29]: Access = 929, Miss = 477, Miss_rate = 0.513, Pending_hits = 64, Reservation_fails = 800
	L1D_cache_core[30]: Access = 886, Miss = 464, Miss_rate = 0.524, Pending_hits = 64, Reservation_fails = 796
	L1D_cache_core[31]: Access = 850, Miss = 469, Miss_rate = 0.552, Pending_hits = 64, Reservation_fails = 760
	L1D_cache_core[32]: Access = 922, Miss = 474, Miss_rate = 0.514, Pending_hits = 64, Reservation_fails = 795
	L1D_cache_core[33]: Access = 914, Miss = 469, Miss_rate = 0.513, Pending_hits = 64, Reservation_fails = 816
	L1D_cache_core[34]: Access = 907, Miss = 480, Miss_rate = 0.529, Pending_hits = 64, Reservation_fails = 758
	L1D_cache_core[35]: Access = 897, Miss = 472, Miss_rate = 0.526, Pending_hits = 64, Reservation_fails = 717
	L1D_cache_core[36]: Access = 897, Miss = 472, Miss_rate = 0.526, Pending_hits = 64, Reservation_fails = 740
	L1D_cache_core[37]: Access = 864, Miss = 472, Miss_rate = 0.546, Pending_hits = 64, Reservation_fails = 720
	L1D_cache_core[38]: Access = 962, Miss = 480, Miss_rate = 0.499, Pending_hits = 64, Reservation_fails = 786
	L1D_cache_core[39]: Access = 873, Miss = 475, Miss_rate = 0.544, Pending_hits = 64, Reservation_fails = 711
	L1D_cache_core[40]: Access = 850, Miss = 469, Miss_rate = 0.552, Pending_hits = 64, Reservation_fails = 724
	L1D_cache_core[41]: Access = 846, Miss = 468, Miss_rate = 0.553, Pending_hits = 64, Reservation_fails = 767
	L1D_cache_core[42]: Access = 832, Miss = 464, Miss_rate = 0.558, Pending_hits = 64, Reservation_fails = 793
	L1D_cache_core[43]: Access = 909, Miss = 470, Miss_rate = 0.517, Pending_hits = 64, Reservation_fails = 842
	L1D_cache_core[44]: Access = 984, Miss = 480, Miss_rate = 0.488, Pending_hits = 64, Reservation_fails = 832
	L1D_cache_core[45]: Access = 991, Miss = 480, Miss_rate = 0.484, Pending_hits = 64, Reservation_fails = 846
	L1D_cache_core[46]: Access = 909, Miss = 480, Miss_rate = 0.528, Pending_hits = 64, Reservation_fails = 766
	L1D_cache_core[47]: Access = 956, Miss = 478, Miss_rate = 0.500, Pending_hits = 64, Reservation_fails = 907
	L1D_cache_core[48]: Access = 946, Miss = 476, Miss_rate = 0.503, Pending_hits = 64, Reservation_fails = 916
	L1D_cache_core[49]: Access = 1048, Miss = 484, Miss_rate = 0.462, Pending_hits = 64, Reservation_fails = 1015
	L1D_cache_core[50]: Access = 1021, Miss = 480, Miss_rate = 0.470, Pending_hits = 64, Reservation_fails = 917
	L1D_cache_core[51]: Access = 975, Miss = 480, Miss_rate = 0.492, Pending_hits = 64, Reservation_fails = 949
	L1D_cache_core[52]: Access = 1023, Miss = 488, Miss_rate = 0.477, Pending_hits = 64, Reservation_fails = 960
	L1D_cache_core[53]: Access = 1032, Miss = 480, Miss_rate = 0.465, Pending_hits = 64, Reservation_fails = 976
	L1D_cache_core[54]: Access = 977, Miss = 480, Miss_rate = 0.491, Pending_hits = 64, Reservation_fails = 869
	L1D_cache_core[55]: Access = 927, Miss = 480, Miss_rate = 0.518, Pending_hits = 64, Reservation_fails = 859
	L1D_cache_core[56]: Access = 928, Miss = 472, Miss_rate = 0.509, Pending_hits = 64, Reservation_fails = 869
	L1D_cache_core[57]: Access = 886, Miss = 472, Miss_rate = 0.533, Pending_hits = 64, Reservation_fails = 779
	L1D_cache_core[58]: Access = 864, Miss = 472, Miss_rate = 0.546, Pending_hits = 64, Reservation_fails = 754
	L1D_cache_core[59]: Access = 880, Miss = 471, Miss_rate = 0.535, Pending_hits = 64, Reservation_fails = 799
	L1D_cache_core[60]: Access = 957, Miss = 478, Miss_rate = 0.499, Pending_hits = 64, Reservation_fails = 822
	L1D_cache_core[61]: Access = 899, Miss = 466, Miss_rate = 0.518, Pending_hits = 64, Reservation_fails = 812
	L1D_cache_core[62]: Access = 901, Miss = 472, Miss_rate = 0.524, Pending_hits = 64, Reservation_fails = 780
	L1D_cache_core[63]: Access = 850, Miss = 469, Miss_rate = 0.552, Pending_hits = 64, Reservation_fails = 739
	L1D_cache_core[64]: Access = 288, Miss = 288, Miss_rate = 1.000, Pending_hits = 0, Reservation_fails = 191
	L1D_cache_core[65]: Access = 288, Miss = 288, Miss_rate = 1.000, Pending_hits = 0, Reservation_fails = 188
	L1D_cache_core[66]: Access = 288, Miss = 288, Miss_rate = 1.000, Pending_hits = 0, Reservation_fails = 179
	L1D_cache_core[67]: Access = 288, Miss = 288, Miss_rate = 1.000, Pending_hits = 0, Reservation_fails = 174
	L1D_cache_core[68]: Access = 288, Miss = 288, Miss_rate = 1.000, Pending_hits = 0, Reservation_fails = 194
	L1D_cache_core[69]: Access = 288, Miss = 288, Miss_rate = 1.000, Pending_hits = 0, Reservation_fails = 220
	L1D_cache_core[70]: Access = 288, Miss = 288, Miss_rate = 1.000, Pending_hits = 0, Reservation_fails = 176
	L1D_cache_core[71]: Access = 288, Miss = 288, Miss_rate = 1.000, Pending_hits = 0, Reservation_fails = 209
	L1D_cache_core[72]: Access = 288, Miss = 288, Miss_rate = 1.000, Pending_hits = 0, Reservation_fails = 149
	L1D_cache_core[73]: Access = 288, Miss = 288, Miss_rate = 1.000, Pending_hits = 0, Reservation_fails = 144
	L1D_cache_core[74]: Access = 288, Miss = 288, Miss_rate = 1.000, Pending_hits = 0, Reservation_fails = 192
	L1D_cache_core[75]: Access = 288, Miss = 288, Miss_rate = 1.000, Pending_hits = 0, Reservation_fails = 147
	L1D_cache_core[76]: Access = 288, Miss = 288, Miss_rate = 1.000, Pending_hits = 0, Reservation_fails = 141
	L1D_cache_core[77]: Access = 288, Miss = 288, Miss_rate = 1.000, Pending_hits = 0, Reservation_fails = 251
	L1D_cache_core[78]: Access = 288, Miss = 288, Miss_rate = 1.000, Pending_hits = 0, Reservation_fails = 179
	L1D_cache_core[79]: Access = 192, Miss = 192, Miss_rate = 1.000, Pending_hits = 0, Reservation_fails = 63
	L1D_total_cache_accesses = 63696
	L1D_total_cache_misses = 34901
	L1D_total_cache_miss_rate = 0.5479
	L1D_total_cache_pending_hits = 4096
	L1D_total_cache_reservation_fails = 55729
	L1D_cache_data_port_util = 0.165
	L1D_cache_fill_port_util = 0.129
L1C_cache:
	L1C_total_cache_accesses = 0
	L1C_total_cache_misses = 0
	L1C_total_cache_pending_hits = 0
	L1C_total_cache_reservation_fails = 0
L1T_cache:
	L1T_total_cache_accesses = 0
	L1T_total_cache_misses = 0
	L1T_total_cache_pending_hits = 0
	L1T_total_cache_reservation_fails = 0

Total_core_cache_stats:
	Total_core_cache_stats_breakdown[Stream_1][GLOBAL_ACC_R][HIT] = 0
	Total_core_cache_stats_breakdown[Stream_1][GLOBAL_ACC_R][HIT_RESERVED] = 0
	Total_core_cache_stats_breakdown[Stream_1][GLOBAL_ACC_R][MISS] = 2800
	Total_core_cache_stats_breakdown[Stream_1][GLOBAL_ACC_R][RESERVATION_FAIL] = 3901
	Total_core_cache_stats_breakdown[Stream_1][GLOBAL_ACC_R][SECTOR_MISS] = 8400
	Total_core_cache_stats_breakdown[Stream_1][GLOBAL_ACC_R][MSHR_HIT] = 0
	Total_core_cache_stats_breakdown[Stream_1][LOCAL_ACC_R][HIT] = 0
	Total_core_cache_stats_breakdown[Stream_1][LOCAL_ACC_R][HIT_RESERVED] = 0
	Total_core_cache_stats_breakdown[Stream_1][LOCAL_ACC_R][MISS] = 0
	Total_core_cache_stats_breakdown[Stream_1][LOCAL_ACC_R][RESERVATION_FAIL] = 0
	Total_core_cache_stats_breakdown[Stream_1][LOCAL_ACC_R][SECTOR_MISS] = 0
	Total_core_cache_stats_breakdown[Stream_1][LOCAL_ACC_R][MSHR_HIT] = 0
	Total_core_cache_stats_breakdown[Stream_1][CONST_ACC_R][HIT] = 0
	Total_core_cache_stats_breakdown[Stream_1][CONST_ACC_R][HIT_RESERVED] = 0
	Total_core_cache_stats_breakdown[Stream_1][CONST_ACC_R][MISS] = 0
	Total_core_cache_stats_breakdown[Stream_1][CONST_ACC_R][RESERVATION_FAIL] = 0
	Total_core_cache_stats_breakdown[Stream_1][CONST_ACC_R][SECTOR_MISS] = 0
	Total_core_cache_stats_breakdown[Stream_1][CONST_ACC_R][MSHR_HIT] = 0
	Total_core_cache_stats_breakdown[Stream_1][TEXTURE_ACC_R][HIT] = 0
	Total_core_cache_stats_breakdown[Stream_1][TEXTURE_ACC_R][HIT_RESERVED] = 0
	Total_core_cache_stats_breakdown[Stream_1][TEXTURE_ACC_R][MISS] = 0
	Total_core_cache_stats_breakdown[Stream_1][TEXTURE_ACC_R][RESERVATION_FAIL] = 0
	Total_core_cache_stats_breakdown[Stream_1][TEXTURE_ACC_R][SECTOR_MISS] = 0
	Total_core_cache_stats_breakdown[Stream_1][TEXTURE_ACC_R][MSHR_HIT] = 0
	Total_core_cache_stats_breakdown[Stream_1][GLOBAL_ACC_W][HIT] = 0
	Total_core_cache_stats_breakdown[Stream_1][GLOBAL_ACC_W][HIT_RESERVED] = 0
	Total_core_cache_stats_breakdown[Stream_1][GLOBAL_ACC_W][MISS] = 1400
	Total_core_cache_stats_breakdown[Stream_1][GLOBAL_ACC_W][RESERVATION_FAIL] = 355
	Total_core_cache_stats_breakdown[Stream_1][GLOBAL_ACC_W][SECTOR_MISS] = 4200
	Total_core_cache_stats_breakdown[Stream_1][GLOBAL_ACC_W][MSHR_HIT] = 0
	Total_core_cache_stats_breakdown[Stream_1][LOCAL_ACC_W][HIT] = 0
	Total_core_cache_stats_breakdown[Stream_1][LOCAL_ACC_W][HIT_RESERVED] = 0
	Total_core_cache_stats_breakdown[Stream_1][LOCAL_ACC_W][MISS] = 0
	Total_core_cache_stats_breakdown[Stream_1][LOCAL_ACC_W][RESERVATION_FAIL] = 0
	Total_core_cache_stats_breakdown[Stream_1][LOCAL_ACC_W][SECTOR_MISS] = 0
	Total_core_cache_stats_breakdown[Stream_1][LOCAL_ACC_W][MSHR_HIT] = 0
	Total_core_cache_stats_breakdown[Stream_1][L1_WRBK_ACC][HIT] = 0
	Total_core_cache_stats_breakdown[Stream_1][L1_WRBK_ACC][HIT_RESERVED] = 0
	Total_core_cache_stats_breakdown[Stream_1][L1_WRBK_ACC][MISS] = 0
	Total_core_cache_stats_breakdown[Stream_1][L1_WRBK_ACC][RESERVATION_FAIL] = 0
	Total_core_cache_stats_breakdown[Stream_1][L1_WRBK_ACC][SECTOR_MISS] = 0
	Total_core_cache_stats_breakdown[Stream_1][L1_WRBK_ACC][MSHR_HIT] = 0
	Total_core_cache_stats_breakdown[Stream_1][L2_WRBK_ACC][HIT] = 0
	Total_core_cache_stats_breakdown[Stream_1][L2_WRBK_ACC][HIT_RESERVED] = 0
	Total_core_cache_stats_breakdown[Stream_1][L2_WRBK_ACC][MISS] = 0
	Total_core_cache_stats_breakdown[Stream_1][L2_WRBK_ACC][RESERVATION_FAIL] = 0
	Total_core_cache_stats_breakdown[Stream_1][L2_WRBK_ACC][SECTOR_MISS] = 0
	Total_core_cache_stats_breakdown[Stream_1][L2_WRBK_ACC][MSHR_HIT] = 0
	Total_core_cache_stats_breakdown[Stream_1][INST_ACC_R][HIT] = 0
	Total_core_cache_stats_breakdown[Stream_1][INST_ACC_R][HIT_RESERVED] = 0
	Total_core_cache_stats_breakdown[Stream_1][INST_ACC_R][MISS] = 0
	Total_core_cache_stats_breakdown[Stream_1][INST_ACC_R][RESERVATION_FAIL] = 0
	Total_core_cache_stats_breakdown[Stream_1][INST_ACC_R][SECTOR_MISS] = 0
	Total_core_cache_stats_breakdown[Stream_1][INST_ACC_R][MSHR_HIT] = 0
	Total_core_cache_stats_breakdown[Stream_1][L1_WR_ALLOC_R][HIT] = 0
	Total_core_cache_stats_breakdown[Stream_1][L1_WR_ALLOC_R][HIT_RESERVED] = 0
	Total_core_cache_stats_breakdown[Stream_1][L1_WR_ALLOC_R][MISS] = 0
	Total_core_cache_stats_breakdown[Stream_1][L1_WR_ALLOC_R][RESERVATION_FAIL] = 0
	Total_core_cache_stats_breakdown[Stream_1][L1_WR_ALLOC_R][SECTOR_MISS] = 0
	Total_core_cache_stats_breakdown[Stream_1][L1_WR_ALLOC_R][MSHR_HIT] = 0
	Total_core_cache_stats_breakdown[Stream_1][L2_WR_ALLOC_R][HIT] = 0
	Total_core_cache_stats_breakdown[Stream_1][L2_WR_ALLOC_R][HIT_RESERVED] = 0
	Total_core_cache_stats_breakdown[Stream_1][L2_WR_ALLOC_R][MISS] = 0
	Total_core_cache_stats_breakdown[Stream_1][L2_WR_ALLOC_R][RESERVATION_FAIL] = 0
	Total_core_cache_stats_breakdown[Stream_1][L2_WR_ALLOC_R][SECTOR_MISS] = 0
	Total_core_cache_stats_breakdown[Stream_1][L2_WR_ALLOC_R][MSHR_HIT] = 0
	Total_core_cache_stats_breakdown[Stream_1][GLOBAL_ACC_R][TOTAL_ACCESS] = 11200
	Total_core_cache_stats_breakdown[Stream_1][GLOBAL_ACC_W][TOTAL_ACCESS] = 5600

Total_core_cache_fail_stats:
	Total_core_cache_fail_stats_breakdown[Stream_1][GLOBAL_ACC_R][MISS_QUEUE_FULL] = 3901
	Total_core_cache_fail_stats_breakdown[Stream_1][GLOBAL_ACC_W][MISS_QUEUE_FULL] = 355
ctas_completed 175, Shader 0 warp_id issue ditsribution:
warp_id:
0, 1, 2, 3, 4, 5, 6, 7, 8, 9, 10, 11, 12, 13, 14, 15, 16, 17, 18, 19, 20, 21, 22, 23, 
distro:
85, 55, 0, 0, 0, 0, 0, 0, 27, 27, 27, 27, 27, 27, 27, 27, 27, 27, 27, 27, 27, 27, 27, 27, 
gpgpu_n_tot_thrd_icount = 1426192
gpgpu_n_tot_w_icount = 46643
gpgpu_n_stall_shd_mem = 28188
gpgpu_n_mem_read_local = 0
gpgpu_n_mem_write_local = 0
gpgpu_n_mem_read_global = 17344
gpgpu_n_mem_write_global = 36058
gpgpu_n_mem_texture = 0
gpgpu_n_mem_const = 0
gpgpu_n_load_insn  = 105736
gpgpu_n_store_insn = 124352
gpgpu_n_shmem_insn = 0
gpgpu_n_sstarr_insn = 0
gpgpu_n_tex_insn = 0
gpgpu_n_const_mem_insn = 0
gpgpu_n_param_mem_insn = 0
gpgpu_n_shmem_bkconflict = 0
gpgpu_n_cache_bkconflict = 0
gpgpu_n_intrawarp_mshr_merge = 0
gpgpu_n_cmem_portconflict = 0
gpgpu_stall_shd_mem[c_mem][resource_stall] = 0
gpgpu_stall_shd_mem[s_mem][bk_conf] = 0
gpgpu_stall_shd_mem[gl_mem][resource_stall] = 19034
gpgpu_stall_shd_mem[gl_mem][coal_stall] = 9154
gpgpu_stall_shd_mem[gl_mem][data_port_stall] = 0
gpu_reg_bank_conflict_stalls = 0
Warp Occupancy Distribution:
Stall:29656	W0_Idle:65654	W0_Scoreboard:396465	W1:2	W2:0	W3:0	W4:0	W5:0	W6:0	W7:2	W8:143	W9:0	W10:0	W11:0	W12:0	W13:0	W14:0	W15:0	W16:0	W17:0	W18:0	W19:0	W20:0	W21:0	W22:0	W23:0	W24:1293	W25:0	W26:0	W27:0	W28:0	W29:0	W30:0	W31:8	W32:43965
single_issue_nums: WS0:15056	WS1:13205	WS2:9450	WS3:9450	
dual_issue_nums: WS0:0	WS1:0	WS2:0	WS3:0	
traffic_breakdown_coretomem[GLOBAL_ACC_R] = 138752 {8:17344,}
traffic_breakdown_coretomem[GLOBAL_ACC_W] = 1442320 {40:36058,}
traffic_breakdown_memtocore[GLOBAL_ACC_R] = 693760 {40:17344,}
traffic_breakdown_memtocore[GLOBAL_ACC_W] = 242792 {8:30349,}
maxmflatency = 802 
max_icnt2mem_latency = 399 
maxmrqlatency = 186 
max_icnt2sh_latency = 139 
averagemflatency = 404 
avg_icnt2mem_latency = 148 
avg_mrq_latency = 14 
avg_icnt2sh_latency = 35 
mrq_lat_table:1779 	5152 	2767 	2774 	2526 	1697 	626 	23 	0 	0 	0 	0 	0 	0 	0 	0 	0 	0 	0 	0 	0 	0 	0 	0 	0 	0 	0 	0 	0 	0 	0 	0 	
dq_lat_table:0 	0 	0 	0 	0 	0 	0 	0 	0 	0 	0 	0 	0 	0 	0 	0 	0 	0 	0 	0 	0 	0 	0 	0 	0 	0 	0 	0 	0 	0 	0 	0 	
mf_lat_table:0 	0 	0 	0 	0 	0 	0 	9708 	27341 	10634 	0 	0 	0 	0 	0 	0 	0 	0 	0 	0 	0 	0 	0 	0 	0 	0 	0 	0 	0 	0 	0 	0 	
icnt2mem_lat_table:0 	0 	0 	0 	5101 	13006 	12437 	16906 	4909 	0 	0 	0 	0 	0 	0 	0 	0 	0 	0 	0 	0 	0 	0 	0 	
icnt2sh_lat_table:0 	7423 	4755 	5998 	8863 	12544 	8061 	39 	0 	0 	0 	0 	0 	0 	0 	0 	0 	0 	0 	0 	0 	0 	0 	0 	
mf_lat_pw_table:0 	0 	0 	0 	0 	0 	0 	0 	3 	0 	0 	0 	0 	0 	0 	0 	0 	0 	0 	0 	0 	0 	0 	0 	0 	0 	0 	0 	0 	0 	0 	0 	
maximum concurrent accesses to same row:
dram[0]:         0         0         0         0         0         0         0         0         0         0         0         0         0         0         0         0 
dram[1]:         0         0         0         0         0         0         0         0         0         0         0         0         0         0         0         0 
dram[2]:         0         0         0         0         0         0         0         0         0         0         0         0         0         0         0         0 
dram[3]:         0         0         0         0         0         0         0         0         0         0         0         0         0         0         0         0 
dram[4]:         0         0         0         0         0         0         0         0         0         0         0         0         0         0         0         0 
dram[5]:         0         0         0         0         0         0         0         0         0         0         0         0         0         0         0         0 
dram[6]:         0         0         0         0         0         0         0         0         0         0         0         0         0         0         0         0 
dram[7]:         0         0         0         0         0         0         0         0         0         0         0         0         0         0         0         0 
dram[8]:         0         0         0         0         0         0         0         0         0         0         0         0         0         0         0         0 
dram[9]:         0         0         0         0         0         0         0         0         0         0         0         0         0         0         0         0 
dram[10]:         0         0         0         0         0         0         0         0         0         0         0         0         0         0         0         0 
dram[11]:         0         0         0         0         0         0         0         0         0         0         0         0         0         0         0         0 
dram[12]:         0         0         0         0         0         0         0         0         0         0         0         0         0         0         0         0 
dram[13]:         0         0         0         0         0         0         0         0         0         0         0         0         0         0         0         0 
dram[14]:         0         0         0         0         0         0         0         0         0         0         0         0         0         0         0         0 
dram[15]:         0         0         0         0         0         0         0         0         0         0         0         0         0         0         0         0 
dram[16]:         0         0         0         0         0         0         0         0         0         0         0         0         0         0         0         0 
dram[17]:         0         0         0         0         0         0         0         0         0         0         0         0         0         0         0         0 
dram[18]:         0         0         0         0         0         0         0         0         0         0         0         0         0         0         0         0 
dram[19]:         0         0         0         0         0         0         0         0         0         0         0         0         0         0         0         0 
dram[20]:         0         0         0         0         0         0         0         0         0         0         0         0         0         0         0         0 
dram[21]:         0         0         0         0         0         0         0         0         0         0         0         0         0         0         0         0 
dram[22]:         0         0         0         0         0         0         0         0         0         0         0         0         0         0         0         0 
dram[23]:         0         0         0         0         0         0         0         0         0         0         0         0         0         0         0         0 
dram[24]:         0         0         0         0         0         0         0         0         0         0         0         0         0         0         0         0 
dram[25]:         0         0         0         0         0         0         0         0         0         0         0         0         0         0         0         0 
dram[26]:         0         0         0         0         0         0         0         0         0         0         0         0         0         0         0         0 
dram[27]:         0         0         0         0         0         0         0         0         0         0         0         0         0         0         0         0 
dram[28]:         0         0         0         0         0         0         0         0         0         0         0         0         0         0         0         0 
dram[29]:         0         0         0         0         0         0         0         0         0         0         0         0         0         0         0         0 
dram[30]:         0         0         0         0         0         0         0         0         0         0         0         0         0         0         0         0 
dram[31]:         0         0         0         0         0         0         0         0         0         0         0         0         0         0         0         0 
maximum service time to same row:
dram[0]:         0         0         0         0      5577      5458      5431      5433      5463      5477      5814      5828      5768      5765         0         0 
dram[1]:         0         0         0         0      5431      5433      5436      5434      5501      5503      5814      5838      5780      5765         0         0 
dram[2]:         0         0         0         0      5431      5433      5436      5434      5528      5511      5698      5828      5770      5771         0         0 
dram[3]:         0         0         0         0      5433      5431      5434      5436      5504      5485      5676      5829      5770      5771         0         0 
dram[4]:         0         0         0         0      5458      5460      5433      5431      5513      5514      5703      5848      5760      5771         0         0 
dram[5]:         0         0         0         0      5446      5445      5448      5450      5497      5499      5697      5851      5771      5773         0         0 
dram[6]:         0         0         0         0      5611      5496      5438      5440      5487      5489      5807      5826      5758      5785         0         0 
dram[7]:         0         0         0         0      5448      5445      5446      5451      5485      5503      5811      5826      5760      5783         0         0 
dram[8]:         0         0         0         0      5554      5528      5431      5433      5477      5479      5804      5807      5760      5783         0         0 
dram[9]:         0         0         0         0      5431      5433      5436      5434      5485      5487      5804      5807      5760      5845         0         0 
dram[10]:         0         0         0         0      5431      5433      5436      5434      5528      5511      5691      5693      5794      5845         0         0 
dram[11]:         0         0         0         0      5433      5431      5434      5436      5504      5485      5700      5674      5792      5843         0         0 
dram[12]:         0         0         0         0      5458      5460      5433      5431      5513      5514      5714      5715      5792      5777         0         0 
dram[13]:         0         0         0         0      5446      5445      5448      5450      5497      5499      5698      5700      5834      5783         0         0 
dram[14]:         0         0         0         0      5601      5565      5438      5440      5484      5485      5797      5804      5777      5761         0         0 
dram[15]:         0         0         0         0      5445      5446      5450      5448      5497      5499      5800      5806      5770      5765         0         0 
dram[16]:         0         0         0         0      5557      5559      5431      5433      5477      5479      5780      5804      5766      5765         0         0 
dram[17]:         0         0         0         0      5431      5433      5436      5434      5485      5487      5782      5806      5765      5768         0         0 
dram[18]:         0         0         0         0      5431      5433      5436      5434      5528      5511      5698      5700      5782      5763         0         0 
dram[19]:         0         0         0         0      5433      5431      5434      5436      5504      5485      5700      5702      5782      5763         0         0 
dram[20]:         0         0         0         0      5458      5460      5433      5431      5513      5514      5697      5698      5777      5760         0         0 
dram[21]:         0         0         0         0      5446      5445      5448      5450      5497      5499      5697      5698      5821      5780         0         0 
dram[22]:         0         0         0         0      5574      5576      5438      5440      5487      5489      5806      5817      5819      5748         0         0 
dram[23]:         0         0         0         0      5445      5446      5450      5448      5497      5499      5834      5819      5821      5754         0         0 
dram[24]:         0         0         0         0      5547      5548      5431      5433      5477      5479      5845      5816      5741      5756         0         0 
dram[25]:         0         0         0         0      5431      5433      5436      5434      5485      5487      5845      5819      5741      5756         0         0 
dram[26]:         0         0         0         0      5431      5433      5436      5434      5528      5511      5698      5700      5761      5790         0         0 
dram[27]:         0         0         0         0      5433      5431      5434      5436      5504      5485      5700      5702      5763      5787         0         0 
dram[28]:         0         0         0         0      5458      5460      5433      5431      5513      5514      5700      5702      5763      5783         0         0 
dram[29]:         0         0         0         0      5446      5445      5448      5450      5497      5499      5722      5698      5778      5816         0         0 
dram[30]:         0         0         0         0      5571      5572      5438      5440      5487      5489      5782      5841      5766      5807         0         0 
dram[31]:         0         0         0         0      5445      5446      5450      5448      5497      5499      5782      5845      5766      5809         0         0 
average row accesses per activate:
dram[0]:      -nan      -nan      -nan      -nan 40.000000 40.000000 64.000000 64.000000 64.000000 64.000000 64.000000 64.000000 40.000000 40.000000      -nan      -nan 
dram[1]:      -nan      -nan      -nan      -nan 40.000000 40.000000 64.000000 64.000000 64.000000 64.000000 64.000000 64.000000 40.000000 40.000000      -nan      -nan 
dram[2]:      -nan      -nan      -nan      -nan 40.000000 40.000000 64.000000 64.000000 64.000000 64.000000 64.000000 64.000000 40.000000 40.000000      -nan      -nan 
dram[3]:      -nan      -nan      -nan      -nan 40.000000 40.000000 64.000000 64.000000 64.000000 64.000000 64.000000 64.000000 40.000000 40.000000      -nan      -nan 
dram[4]:      -nan      -nan      -nan      -nan 40.000000 40.000000 64.000000 64.000000 64.000000 64.000000 64.000000 64.000000 40.000000 40.000000      -nan      -nan 
dram[5]:      -nan      -nan      -nan      -nan 40.000000 40.000000 64.000000 64.000000 64.000000 64.000000 64.000000 64.000000 40.000000 40.000000      -nan      -nan 
dram[6]:      -nan      -nan      -nan      -nan 40.000000 40.000000 64.000000 64.000000 64.000000 64.000000 64.000000 64.000000 40.000000 40.000000      -nan      -nan 
dram[7]:      -nan      -nan      -nan      -nan 40.000000 40.000000 64.000000 64.000000 64.000000 64.000000 64.000000 64.000000 40.000000 40.000000      -nan      -nan 
dram[8]:      -nan      -nan      -nan      -nan 40.000000 40.000000 64.000000 64.000000 64.000000 64.000000 64.000000 64.000000 40.000000 40.000000      -nan      -nan 
dram[9]:      -nan      -nan      -nan      -nan 40.000000 40.000000 64.000000 64.000000 64.000000 64.000000 64.000000 64.000000 40.000000 40.000000      -nan      -nan 
dram[10]:      -nan      -nan      -nan      -nan 40.000000 40.000000 64.000000 64.000000 64.000000 64.000000 64.000000 64.000000 40.000000 40.000000      -nan      -nan 
dram[11]:      -nan      -nan      -nan      -nan 40.000000 40.000000 64.000000 64.000000 64.000000 64.000000 64.000000 64.000000 40.000000 40.000000      -nan      -nan 
dram[12]:      -nan      -nan      -nan      -nan 40.000000 40.000000 64.000000 64.000000 64.000000 64.000000 64.000000 64.000000 40.000000 40.000000      -nan      -nan 
dram[13]:      -nan      -nan      -nan      -nan 40.000000 40.000000 64.000000 64.000000 64.000000 64.000000 64.000000 64.000000 40.000000 40.000000      -nan      -nan 
dram[14]:      -nan      -nan      -nan      -nan 40.000000 40.000000 64.000000 64.000000 64.000000 64.000000 64.000000 64.000000 40.000000 40.000000      -nan      -nan 
dram[15]:      -nan      -nan      -nan      -nan 40.000000 40.000000 64.000000 64.000000 64.000000 64.000000 64.000000 64.000000 40.000000 40.000000      -nan      -nan 
dram[16]:      -nan      -nan      -nan      -nan 40.000000 40.000000 64.000000 64.000000 64.000000 64.000000 64.000000 64.000000 40.000000 32.000000      -nan      -nan 
dram[17]:      -nan      -nan      -nan      -nan 40.000000 40.000000 64.000000 64.000000 64.000000 64.000000 64.000000 64.000000 40.000000 32.000000      -nan      -nan 
dram[18]:      -nan      -nan      -nan      -nan 40.000000 40.000000 64.000000 64.000000 64.000000 64.000000 64.000000 64.000000 40.000000 40.000000      -nan      -nan 
dram[19]:      -nan      -nan      -nan      -nan 40.000000 40.000000 64.000000 64.000000 64.000000 64.000000 64.000000 64.000000 40.000000 40.000000      -nan      -nan 
dram[20]:      -nan      -nan      -nan      -nan 40.000000 40.000000 64.000000 64.000000 64.000000 64.000000 64.000000 64.000000 40.000000 32.000000      -nan      -nan 
dram[21]:      -nan      -nan      -nan      -nan 40.000000 40.000000 64.000000 64.000000 64.000000 64.000000 64.000000 64.000000 40.000000 32.000000      -nan      -nan 
dram[22]:      -nan      -nan      -nan      -nan 40.000000 40.000000 64.000000 64.000000 64.000000 64.000000 64.000000 64.000000 40.000000 32.000000      -nan      -nan 
dram[23]:      -nan      -nan      -nan      -nan 40.000000 40.000000 64.000000 64.000000 64.000000 64.000000 64.000000 64.000000 40.000000 32.000000      -nan      -nan 
dram[24]:      -nan      -nan      -nan      -nan 40.000000 40.000000 64.000000 64.000000 64.000000 64.000000 64.000000 64.000000 40.000000 40.000000      -nan      -nan 
dram[25]:      -nan      -nan      -nan      -nan 40.000000 40.000000 64.000000 64.000000 64.000000 64.000000 64.000000 64.000000 40.000000 40.000000      -nan      -nan 
dram[26]:      -nan      -nan      -nan      -nan 40.000000 40.000000 64.000000 64.000000 64.000000 64.000000 64.000000 64.000000 40.000000 40.000000      -nan      -nan 
dram[27]:      -nan      -nan      -nan      -nan 40.000000 40.000000 64.000000 64.000000 64.000000 64.000000 64.000000 64.000000 40.000000 40.000000      -nan      -nan 
dram[28]:      -nan      -nan      -nan      -nan 40.000000 40.000000 64.000000 64.000000 64.000000 64.000000 64.000000 64.000000 40.000000 40.000000      -nan      -nan 
dram[29]:      -nan      -nan      -nan      -nan 40.000000 40.000000 64.000000 64.000000 64.000000 64.000000 64.000000 64.000000 40.000000 40.000000      -nan      -nan 
dram[30]:      -nan      -nan      -nan      -nan 32.000000 40.000000 64.000000 64.000000 64.000000 64.000000 64.000000 64.000000 40.000000 40.000000      -nan      -nan 
dram[31]:      -nan      -nan      -nan      -nan 32.000000 40.000000 64.000000 64.000000 64.000000 64.000000 64.000000 64.000000 40.000000 40.000000      -nan      -nan 
average row locality = 17344/320 = 54.200001
number of total memory accesses made:
dram[0]:         0         0         0         0         0         0         0         0         0         0         0         0         0         0         0         0 
dram[1]:         0         0         0         0         0         0         0         0         0         0         0         0         0         0         0         0 
dram[2]:         0         0         0         0         0         0         0         0         0         0         0         0         0         0         0         0 
dram[3]:         0         0         0         0         0         0         0         0         0         0         0         0         0         0         0         0 
dram[4]:         0         0         0         0         0         0         0         0         0         0         0         0         0         0         0         0 
dram[5]:         0         0         0         0         0         0         0         0         0         0         0         0         0         0         0         0 
dram[6]:         0         0         0         0         0         0         0         0         0         0         0         0         0         0         0         0 
dram[7]:         0         0         0         0         0         0         0         0         0         0         0         0         0         0         0         0 
dram[8]:         0         0         0         0         0         0         0         0         0         0         0         0         0         0         0         0 
dram[9]:         0         0         0         0         0         0         0         0         0         0         0         0         0         0         0         0 
dram[10]:         0         0         0         0         0         0         0         0         0         0         0         0         0         0         0         0 
dram[11]:         0         0         0         0         0         0         0         0         0         0         0         0         0         0         0         0 
dram[12]:         0         0         0         0         0         0         0         0         0         0         0         0         0         0         0         0 
dram[13]:         0         0         0         0         0         0         0         0         0         0         0         0         0         0         0         0 
dram[14]:         0         0         0         0         0         0         0         0         0         0         0         0         0         0         0         0 
dram[15]:         0         0         0         0         0         0         0         0         0         0         0         0         0         0         0         0 
dram[16]:         0         0         0         0         0         0         0         0         0         0         0         0         0         0         0         0 
dram[17]:         0         0         0         0         0         0         0         0         0         0         0         0         0         0         0         0 
dram[18]:         0         0         0         0         0         0         0         0         0         0         0         0         0         0         0         0 
dram[19]:         0         0         0         0         0         0         0         0         0         0         0         0         0         0         0         0 
dram[20]:         0         0         0         0         0         0         0         0         0         0         0         0         0         0         0         0 
dram[21]:         0         0         0         0         0         0         0         0         0         0         0         0         0         0         0         0 
[...]
issued_two_Eff = 0.156474 
queue_avg = 5.419474 


dram_util_bins: 0 0 0 0 0 0 0 0 0 0
dram_eff_bins: 0 0 0 0 0 0 0 0 0 0
mrqq: max=64 avg=5.41947
Memory Partition 29: 
Cache L2_bank_058:
MSHR contents

Cache L2_bank_059:
MSHR contents

In Dram Latency Queue (total = 0): 
DRAM[29]: 16 bks, busW=16 BL=2 CL=12, tRRD=3 tCCD=1, tRCD=12 tRAS=28 tRP=12 tRC=40
n_cmd=551066 n_nop=486942 n_act=9181 n_pre=9165 n_ref_event=0 n_req=37015 n_rd=30675 n_rd_L2_A=0 n_write=0 n_wr_bk=25072 bw_util=0.1012
n_activity=94317 dram_eff=0.5911
bk0: 1960a 508268i bk1: 1956a 510269i bk2: 2070a 509509i bk3: 2058a 509129i bk4: 1962a 510283i bk5: 1959a 511294i bk6: 1889a 514498i bk7: 1883a 513789i bk8: 1891a 515948i bk9: 1888a 514214i bk10: 1888a 511315i bk11: 1875a 512314i bk12: 1879a 511837i bk13: 1887a 513411i bk14: 1815a 512088i bk15: 1815a 514250i 

------------------------------------------------------------------------

Row_Buffer_Locality = 0.751965
Row_Buffer_Locality_read = 0.763619
Row_Buffer_Locality_write = 0.695584
Bank_Level_Parallism = 7.552794
Bank_Level_Parallism_Col = 5.480966
Bank_Level_Parallism_Ready = 2.309613
write_to_read_ratio_blp_rw_average = 0.469549
GrpLevelPara = 2.897782 

BW Util details:
bwutil = 0.101162 
total_CMD = 551066 
util_bw = 55747 
Wasted_Col = 27129 
Wasted_Row = 4728 
Idle = 463462 

BW Util Bottlenecks: 
RCDc_limit = 41571 
RCDWRc_limit = 7013 
WTRc_limit = 13761 
RTWc_limit = 56320 
CCDLc_limit = 19511 
rwq = 0 
CCDLc_limit_alone = 13201 
WTRc_limit_alone = 12275 
RTWc_limit_alone = 51496 

Commands details: 
total_CMD = 551066 
n_nop = 486942 
Read = 30675 
Write = 0 
L2_Alloc = 0 
L2_WB = 25072 
n_act = 9181 
n_pre = 9165 
n_ref = 0 
n_req = 37015 
total_req = 55747 

Dual Bus Interface Util: 
issued_total_row = 18346 
issued_total_col = 55747 
Row_Bus_Util =  0.033292 
CoL_Bus_Util = 0.101162 
Either_Row_CoL_Bus_Util = 0.116364 
Issued_on_Two_Bus_Simul_Util = 0.018090 
issued_two_Eff = 0.155464 
queue_avg = 5.369444 


dram_util_bins: 0 0 0 0 0 0 0 0 0 0
dram_eff_bins: 0 0 0 0 0 0 0 0 0 0
mrqq: max=64 avg=5.36944
Memory Partition 30: 
Cache L2_bank_060:
MSHR contents

Cache L2_bank_061:
MSHR contents

In Dram Latency Queue (total = 0): 
DRAM[30]: 16 bks, busW=16 BL=2 CL=12, tRRD=3 tCCD=1, tRCD=12 tRAS=28 tRP=12 tRC=40
n_cmd=551066 n_nop=486891 n_act=9106 n_pre=9090 n_ref_event=0 n_req=37085 n_rd=30719 n_rd_L2_A=0 n_write=0 n_wr_bk=25107 bw_util=0.1013
n_activity=93914 dram_eff=0.5944
bk0: 1955a 509250i bk1: 1965a 509472i bk2: 2079a 510245i bk3: 2047a 510650i bk4: 1969a 511666i bk5: 1965a 511215i bk6: 1885a 513787i bk7: 1884a 513440i bk8: 1892a 513986i bk9: 1888a 511975i bk10: 1897a 512822i bk11: 1885a 513521i bk12: 1889a 512743i bk13: 1902a 511542i bk14: 1808a 514117i bk15: 1809a 515613i 

------------------------------------------------------------------------

Row_Buffer_Locality = 0.754456
Row_Buffer_Locality_read = 0.765682
Row_Buffer_Locality_write = 0.700283
Bank_Level_Parallism = 7.538339
Bank_Level_Parallism_Col = 5.471290
Bank_Level_Parallism_Ready = 2.249669
write_to_read_ratio_blp_rw_average = 0.482388
GrpLevelPara = 2.895387 

BW Util details:
bwutil = 0.101305 
total_CMD = 551066 
util_bw = 55826 
Wasted_Col = 26721 
Wasted_Row = 4753 
Idle = 463766 

BW Util Bottlenecks: 
RCDc_limit = 41355 
RCDWRc_limit = 6842 
WTRc_limit = 13149 
RTWc_limit = 55859 
CCDLc_limit = 19438 
rwq = 0 
CCDLc_limit_alone = 13663 
WTRc_limit_alone = 11824 
RTWc_limit_alone = 51409 

Commands details: 
total_CMD = 551066 
n_nop = 486891 
Read = 30719 
Write = 0 
L2_Alloc = 0 
L2_WB = 25107 
n_act = 9106 
n_pre = 9090 
n_ref = 0 
n_req = 37085 
total_req = 55826 

Dual Bus Interface Util: 
issued_total_row = 18196 
issued_total_col = 55826 
Row_Bus_Util =  0.033020 
CoL_Bus_Util = 0.101305 
Either_Row_CoL_Bus_Util = 0.116456 
Issued_on_Two_Bus_Simul_Util = 0.017869 
issued_two_Eff = 0.153440 
queue_avg = 5.338137 


dram_util_bins: 0 0 0 0 0 0 0 0 0 0
dram_eff_bins: 0 0 0 0 0 0 0 0 0 0
mrqq: max=64 avg=5.33814
Memory Partition 31: 
Cache L2_bank_062:
MSHR contents

Cache L2_bank_063:
MSHR contents

In Dram Latency Queue (total = 0): 
DRAM[31]: 16 bks, busW=16 BL=2 CL=12, tRRD=3 tCCD=1, tRCD=12 tRAS=28 tRP=12 tRC=40
n_cmd=551066 n_nop=486835 n_act=9148 n_pre=9132 n_ref_event=0 n_req=37079 n_rd=30718 n_rd_L2_A=0 n_write=0 n_wr_bk=25116 bw_util=0.1013
n_activity=93619 dram_eff=0.5964
bk0: 1942a 509043i bk1: 1938a 509680i bk2: 2054a 509265i bk3: 2068a 510294i bk4: 1987a 510433i bk5: 1967a 511124i bk6: 1888a 511727i bk7: 1888a 512990i bk8: 1890a 513354i bk9: 1888a 512795i bk10: 1899a 511662i bk11: 1887a 513632i bk12: 1904a 511805i bk13: 1893a 512423i bk14: 1810a 512469i bk15: 1815a 515086i 

------------------------------------------------------------------------

Row_Buffer_Locality = 0.753284
Row_Buffer_Locality_read = 0.764828
Row_Buffer_Locality_write = 0.697532
Bank_Level_Parallism = 7.635358
Bank_Level_Parallism_Col = 5.536034
Bank_Level_Parallism_Ready = 2.264624
write_to_read_ratio_blp_rw_average = 0.479548
GrpLevelPara = 2.901026 

BW Util details:
bwutil = 0.101320 
total_CMD = 551066 
util_bw = 55834 
Wasted_Col = 26746 
Wasted_Row = 4692 
Idle = 463794 

BW Util Bottlenecks: 
RCDc_limit = 41019 
RCDWRc_limit = 7121 
WTRc_limit = 15032 
RTWc_limit = 55382 
CCDLc_limit = 19922 
rwq = 0 
CCDLc_limit_alone = 13944 
WTRc_limit_alone = 13442 
RTWc_limit_alone = 50994 

Commands details: 
total_CMD = 551066 
n_nop = 486835 
Read = 30718 
Write = 0 
L2_Alloc = 0 
L2_WB = 25116 
n_act = 9148 
n_pre = 9132 
n_ref = 0 
n_req = 37079 
total_req = 55834 

Dual Bus Interface Util: 
issued_total_row = 18280 
issued_total_col = 55834 
Row_Bus_Util =  0.033172 
CoL_Bus_Util = 0.101320 
Either_Row_CoL_Bus_Util = 0.116558 
Issued_on_Two_Bus_Simul_Util = 0.017934 
issued_two_Eff = 0.153867 
queue_avg = 5.480008 


dram_util_bins: 0 0 0 0 0 0 0 0 0 0
dram_eff_bins: 0 0 0 0 0 0 0 0 0 0
mrqq: max=64 avg=5.48001

========= L2 cache stats =========
L2_cache_bank[0]: Access = 281892, Miss = 28432, Miss_rate = 0.101, Pending_hits = 321, Reservation_fails = 4110
L2_cache_bank[1]: Access = 301780, Miss = 28411, Miss_rate = 0.094, Pending_hits = 284, Reservation_fails = 2453
L2_cache_bank[2]: Access = 276226, Miss = 28398, Miss_rate = 0.103, Pending_hits = 261, Reservation_fails = 2440
L2_cache_bank[3]: Access = 271452, Miss = 28381, Miss_rate = 0.105, Pending_hits = 334, Reservation_fails = 2909
L2_cache_bank[4]: Access = 263353, Miss = 28357, Miss_rate = 0.108, Pending_hits = 246, Reservation_fails = 4322
L2_cache_bank[5]: Access = 276915, Miss = 28415, Miss_rate = 0.103, Pending_hits = 295, Reservation_fails = 5003
L2_cache_bank[6]: Access = 288603, Miss = 28396, Miss_rate = 0.098, Pending_hits = 246, Reservation_fails = 3260
L2_cache_bank[7]: Access = 282211, Miss = 28462, Miss_rate = 0.101, Pending_hits = 289, Reservation_fails = 4167
L2_cache_bank[8]: Access = 288272, Miss = 28420, Miss_rate = 0.099, Pending_hits = 220, Reservation_fails = 2721
L2_cache_bank[9]: Access = 253977, Miss = 28424, Miss_rate = 0.112, Pending_hits = 222, Reservation_fails = 3081
L2_cache_bank[10]: Access = 275319, Miss = 28425, Miss_rate = 0.103, Pending_hits = 292, Reservation_fails = 3187
L2_cache_bank[11]: Access = 251173, Miss = 28419, Miss_rate = 0.113, Pending_hits = 255, Reservation_fails = 2527
L2_cache_bank[12]: Access = 294774, Miss = 28434, Miss_rate = 0.096, Pending_hits = 298, Reservation_fails = 1425
L2_cache_bank[13]: Access = 273091, Miss = 28418, Miss_rate = 0.104, Pending_hits = 297, Reservation_fails = 3982
L2_cache_bank[14]: Access = 278955, Miss = 28409, Miss_rate = 0.102, Pending_hits = 273, Reservation_fails = 1463
L2_cache_bank[15]: Access = 283949, Miss = 28487, Miss_rate = 0.100, Pending_hits = 285, Reservation_fails = 3748
L2_cache_bank[16]: Access = 281900, Miss = 28434, Miss_rate = 0.101, Pending_hits = 227, Reservation_fails = 2128
L2_cache_bank[17]: Access = 266854, Miss = 28384, Miss_rate = 0.106, Pending_hits = 247, Reservation_fails = 2735
L2_cache_bank[18]: Access = 261977, Miss = 28383, Miss_rate = 0.108, Pending_hits = 231, Reservation_fails = 3112
L2_cache_bank[19]: Access = 292207, Miss = 28397, Miss_rate = 0.097, Pending_hits = 224, Reservation_fails = 3229
L2_cache_bank[20]: Access = 285598, Miss = 28391, Miss_rate = 0.099, Pending_hits = 280, Reservation_fails = 3779
L2_cache_bank[21]: Access = 253098, Miss = 28390, Miss_rate = 0.112, Pending_hits = 215, Reservation_fails = 2127
L2_cache_bank[22]: Access = 246262, Miss = 28399, Miss_rate = 0.115, Pending_hits = 241, Reservation_fails = 2645
L2_cache_bank[23]: Access = 253986, Miss = 28395, Miss_rate = 0.112, Pending_hits = 223, Reservation_fails = 2646
L2_cache_bank[24]: Access = 280543, Miss = 28411, Miss_rate = 0.101, Pending_hits = 262, Reservation_fails = 2694
L2_cache_bank[25]: Access = 290626, Miss = 28426, Miss_rate = 0.098, Pending_hits = 220, Reservation_fails = 2156
L2_cache_bank[26]: Access = 308958, Miss = 28437, Miss_rate = 0.092, Pending_hits = 224, Reservation_fails = 2924
L2_cache_bank[27]: Access = 295511, Miss = 28407, Miss_rate = 0.096, Pending_hits = 232, Reservation_fails = 2223
L2_cache_bank[28]: Access = 245238, Miss = 28349, Miss_rate = 0.116, Pending_hits = 175, Reservation_fails = 2387
L2_cache_bank[29]: Access = 265725, Miss = 28450, Miss_rate = 0.107, Pending_hits = 302, Reservation_fails = 3421
L2_cache_bank[30]: Access = 258574, Miss = 28413, Miss_rate = 0.110, Pending_hits = 228, Reservation_fails = 1744
L2_cache_bank[31]: Access = 257862, Miss = 28381, Miss_rate = 0.110, Pending_hits = 256, Reservation_fails = 3444
L2_cache_bank[32]: Access = 290519, Miss = 28342, Miss_rate = 0.098, Pending_hits = 304, Reservation_fails = 2356
L2_cache_bank[33]: Access = 289591, Miss = 28417, Miss_rate = 0.098, Pending_hits = 284, Reservation_fails = 3635
L2_cache_bank[34]: Access = 265891, Miss = 28391, Miss_rate = 0.107, Pending_hits = 262, Reservation_fails = 2275
L2_cache_bank[35]: Access = 277438, Miss = 28435, Miss_rate = 0.102, Pending_hits = 247, Reservation_fails = 3071
L2_cache_bank[36]: Access = 266663, Miss = 28399, Miss_rate = 0.106, Pending_hits = 279, Reservation_fails = 2434
L2_cache_bank[37]: Access = 283729, Miss = 28412, Miss_rate = 0.100, Pending_hits = 231, Reservation_fails = 2524
L2_cache_bank[38]: Access = 269331, Miss = 28361, Miss_rate = 0.105, Pending_hits = 285, Reservation_fails = 3131
L2_cache_bank[39]: Access = 268169, Miss = 28404, Miss_rate = 0.106, Pending_hits = 286, Reservation_fails = 2982
L2_cache_bank[40]: Access = 273110, Miss = 28369, Miss_rate = 0.104, Pending_hits = 278, Reservation_fails = 2516
L2_cache_bank[41]: Access = 278402, Miss = 28424, Miss_rate = 0.102, Pending_hits = 317, Reservation_fails = 3190
L2_cache_bank[42]: Access = 297290, Miss = 28346, Miss_rate = 0.095, Pending_hits = 219, Reservation_fails = 2716
L2_cache_bank[43]: Access = 263674, Miss = 28418, Miss_rate = 0.108, Pending_hits = 297, Reservation_fails = 3097
L2_cache_bank[44]: Access = 295437, Miss = 28401, Miss_rate = 0.096, Pending_hits = 288, Reservation_fails = 2450
L2_cache_bank[45]: Access = 246466, Miss = 28344, Miss_rate = 0.115, Pending_hits = 256, Reservation_fails = 2526
L2_cache_bank[46]: Access = 267880, Miss = 28345, Miss_rate = 0.106, Pending_hits = 229, Reservation_fails = 2819
L2_cache_bank[47]: Access = 261730, Miss = 28396, Miss_rate = 0.108, Pending_hits = 289, Reservation_fails = 4278
L2_cache_bank[48]: Access = 300059, Miss = 28369, Miss_rate = 0.095, Pending_hits = 302, Reservation_fails = 8732
L2_cache_bank[49]: Access = 257745, Miss = 28418, Miss_rate = 0.110, Pending_hits = 307, Reservation_fails = 2536
L2_cache_bank[50]: Access = 253610, Miss = 28383, Miss_rate = 0.112, Pending_hits = 332, Reservation_fails = 6783
L2_cache_bank[51]: Access = 280679, Miss = 28425, Miss_rate = 0.101, Pending_hits = 365, Reservation_fails = 3652
L2_cache_bank[52]: Access = 281437, Miss = 28374, Miss_rate = 0.101, Pending_hits = 310, Reservation_fails = 3938
L2_cache_bank[53]: Access = 295645, Miss = 28423, Miss_rate = 0.096, Pending_hits = 327, Reservation_fails = 2145
L2_cache_bank[54]: Access = 271058, Miss = 28367, Miss_rate = 0.105, Pending_hits = 258, Reservation_fails = 6140
L2_cache_bank[55]: Access = 278896, Miss = 28419, Miss_rate = 0.102, Pending_hits = 370, Reservation_fails = 3679
L2_cache_bank[56]: Access = 246617, Miss = 28375, Miss_rate = 0.115, Pending_hits = 289, Reservation_fails = 3234
L2_cache_bank[57]: Access = 296230, Miss = 28391, Miss_rate = 0.096, Pending_hits = 351, Reservation_fails = 6027
L2_cache_bank[58]: Access = 258553, Miss = 28343, Miss_rate = 0.110, Pending_hits = 271, Reservation_fails = 3555
L2_cache_bank[59]: Access = 248940, Miss = 28382, Miss_rate = 0.114, Pending_hits = 318, Reservation_fails = 5928
L2_cache_bank[60]: Access = 247527, Miss = 28391, Miss_rate = 0.115, Pending_hits = 356, Reservation_fails = 4495
L2_cache_bank[61]: Access = 284555, Miss = 28410, Miss_rate = 0.100, Pending_hits = 374, Reservation_fails = 4535
L2_cache_bank[62]: Access = 289818, Miss = 28361, Miss_rate = 0.098, Pending_hits = 303, Reservation_fails = 2510
L2_cache_bank[63]: Access = 307664, Miss = 28422, Miss_rate = 0.092, Pending_hits = 357, Reservation_fails = 3821
L2_total_cache_accesses = 17581214
L2_total_cache_misses = 1817592
L2_total_cache_miss_rate = 0.1034
L2_total_cache_pending_hits = 17746
L2_total_cache_reservation_fails = 211902
L2_total_cache_breakdown:
	L2_cache_stats_breakdown[Stream_0][GLOBAL_ACC_R][HIT] = 320802
	L2_cache_stats_breakdown[Stream_0][GLOBAL_ACC_R][HIT_RESERVED] = 12870
	L2_cache_stats_breakdown[Stream_0][GLOBAL_ACC_R][MISS] = 130792
	L2_cache_stats_breakdown[Stream_0][GLOBAL_ACC_R][RESERVATION_FAIL] = 211902
	L2_cache_stats_breakdown[Stream_0][GLOBAL_ACC_R][SECTOR_MISS] = 362885
	L2_cache_stats_breakdown[Stream_0][GLOBAL_ACC_R][MSHR_HIT] = 12870
	L2_cache_stats_breakdown[Stream_0][LOCAL_ACC_R][HIT] = 0
	L2_cache_stats_breakdown[Stream_0][LOCAL_ACC_R][HIT_RESERVED] = 0
	L2_cache_stats_breakdown[Stream_0][LOCAL_ACC_R][MISS] = 0
	L2_cache_stats_breakdown[Stream_0][LOCAL_ACC_R][RESERVATION_FAIL] = 0
	L2_cache_stats_breakdown[Stream_0][LOCAL_ACC_R][SECTOR_MISS] = 0
	L2_cache_stats_breakdown[Stream_0][LOCAL_ACC_R][MSHR_HIT] = 0
	L2_cache_stats_breakdown[Stream_0][CONST_ACC_R][HIT] = 0
	L2_cache_stats_breakdown[Stream_0][CONST_ACC_R][HIT_RESERVED] = 0
	L2_cache_stats_breakdown[Stream_0][CONST_ACC_R][MISS] = 0
	L2_cache_stats_breakdown[Stream_0][CONST_ACC_R][RESERVATION_FAIL] = 0
	L2_cache_stats_breakdown[Stream_0][CONST_ACC_R][SECTOR_MISS] = 0
	L2_cache_stats_breakdown[Stream_0][CONST_ACC_R][MSHR_HIT] = 0
	L2_cache_stats_breakdown[Stream_0][TEXTURE_ACC_R][HIT] = 0
	L2_cache_stats_breakdown[Stream_0][TEXTURE_ACC_R][HIT_RESERVED] = 0
	L2_cache_stats_breakdown[Stream_0][TEXTURE_ACC_R][MISS] = 0
	L2_cache_stats_breakdown[Stream_0][TEXTURE_ACC_R][RESERVATION_FAIL] = 0
	L2_cache_stats_breakdown[Stream_0][TEXTURE_ACC_R][SECTOR_MISS] = 0
	L2_cache_stats_breakdown[Stream_0][TEXTURE_ACC_R][MSHR_HIT] = 0
	L2_cache_stats_breakdown[Stream_0][GLOBAL_ACC_W][HIT] = 15421193
	L2_cache_stats_breakdown[Stream_0][GLOBAL_ACC_W][HIT_RESERVED] = 4876
	L2_cache_stats_breakdown[Stream_0][GLOBAL_ACC_W][MISS] = 150671
	L2_cache_stats_breakdown[Stream_0][GLOBAL_ACC_W][RESERVATION_FAIL] = 0
	L2_cache_stats_breakdown[Stream_0][GLOBAL_ACC_W][SECTOR_MISS] = 437073
	L2_cache_stats_breakdown[Stream_0][GLOBAL_ACC_W][MSHR_HIT] = 0
	L2_cache_stats_breakdown[Stream_0][LOCAL_ACC_W][HIT] = 0
	L2_cache_stats_breakdown[Stream_0][LOCAL_ACC_W][HIT_RESERVED] = 0
	L2_cache_stats_breakdown[Stream_0][LOCAL_ACC_W][MISS] = 0
	L2_cache_stats_breakdown[Stream_0][LOCAL_ACC_W][RESERVATION_FAIL] = 0
	L2_cache_stats_breakdown[Stream_0][LOCAL_ACC_W][SECTOR_MISS] = 0
	L2_cache_stats_breakdown[Stream_0][LOCAL_ACC_W][MSHR_HIT] = 0
	L2_cache_stats_breakdown[Stream_0][L1_WRBK_ACC][HIT] = 0
	L2_cache_stats_breakdown[Stream_0][L1_WRBK_ACC][HIT_RESERVED] = 0
	L2_cache_stats_breakdown[Stream_0][L1_WRBK_ACC][MISS] = 0
	L2_cache_stats_breakdown[Stream_0][L1_WRBK_ACC][RESERVATION_FAIL] = 0
	L2_cache_stats_breakdown[Stream_0][L1_WRBK_ACC][SECTOR_MISS] = 0
	L2_cache_stats_breakdown[Stream_0][L1_WRBK_ACC][MSHR_HIT] = 0
	L2_cache_stats_breakdown[Stream_0][L2_WRBK_ACC][HIT] = 0
	L2_cache_stats_breakdown[Stream_0][L2_WRBK_ACC][HIT_RESERVED] = 0
	L2_cache_stats_breakdown[Stream_0][L2_WRBK_ACC][MISS] = 0
	L2_cache_stats_breakdown[Stream_0][L2_WRBK_ACC][RESERVATION_FAIL] = 0
	L2_cache_stats_breakdown[Stream_0][L2_WRBK_ACC][SECTOR_MISS] = 0
	L2_cache_stats_breakdown[Stream_0][L2_WRBK_ACC][MSHR_HIT] = 0
	L2_cache_stats_breakdown[Stream_0][INST_ACC_R][HIT] = 0
	L2_cache_stats_breakdown[Stream_0][INST_ACC_R][HIT_RESERVED] = 0
	L2_cache_stats_breakdown[Stream_0][INST_ACC_R][MISS] = 0
	L2_cache_stats_breakdown[Stream_0][INST_ACC_R][RESERVATION_FAIL] = 0
	L2_cache_stats_breakdown[Stream_0][INST_ACC_R][SECTOR_MISS] = 0
	L2_cache_stats_breakdown[Stream_0][INST_ACC_R][MSHR_HIT] = 0
	L2_cache_stats_breakdown[Stream_0][L1_WR_ALLOC_R][HIT] = 0
	L2_cache_stats_breakdown[Stream_0][L1_WR_ALLOC_R][HIT_RESERVED] = 0
	L2_cache_stats_breakdown[Stream_0][L1_WR_ALLOC_R][MISS] = 0
	L2_cache_stats_breakdown[Stream_0][L1_WR_ALLOC_R][RESERVATION_FAIL] = 0
	L2_cache_stats_breakdown[Stream_0][L1_WR_ALLOC_R][SECTOR_MISS] = 0
	L2_cache_stats_breakdown[Stream_0][L1_WR_ALLOC_R][MSHR_HIT] = 0
	L2_cache_stats_breakdown[Stream_0][L2_WR_ALLOC_R][HIT] = 0
	L2_cache_stats_breakdown[Stream_0][L2_WR_ALLOC_R][HIT_RESERVED] = 0
	L2_cache_stats_breakdown[Stream_0][L2_WR_ALLOC_R][MISS] = 0
	L2_cache_stats_breakdown[Stream_0][L2_WR_ALLOC_R][RESERVATION_FAIL] = 0
	L2_cache_stats_breakdown[Stream_0][L2_WR_ALLOC_R][SECTOR_MISS] = 0
	L2_cache_stats_breakdown[Stream_0][L2_WR_ALLOC_R][MSHR_HIT] = 0
	L2_cache_stats_breakdown[Stream_0][GLOBAL_ACC_R][TOTAL_ACCESS] = 827349
	L2_cache_stats_breakdown[Stream_0][GLOBAL_ACC_W][TOTAL_ACCESS] = 16013813
L2_total_cache_reservation_fail_breakdown:
	L2_cache_stats_fail_breakdown[Stream_0][GLOBAL_ACC_R][MISS_QUEUE_FULL] = 5
	L2_cache_stats_fail_breakdown[Stream_0][GLOBAL_ACC_R][MSHR_MERGE_ENRTY_FAIL] = 211897
L2_cache_data_port_util = 0.270
L2_cache_fill_port_util = 0.016

icnt_total_pkts_mem_to_simt=17581214
icnt_total_pkts_simt_to_mem=17581214
LD_mem_lat_dist  0 0 0 0 0 0 0 0 0 0 0 0 0 0 0 0 0 0 0 0 0 0 0 0 0 0 0
ST_mem_lat_dist  0 0 0 0 0 0 0 0 0 0 0 0 0 0 0 0 0 0 0 0 0 0 0 0 0 0 0
----------------------------Interconnect-DETAILS--------------------------------
Req_Network_injected_packets_num = 17581214
Req_Network_cycles = 938109
Req_Network_injected_packets_per_cycle =      18.7411 
Req_Network_conflicts_per_cycle =       7.3162
Req_Network_conflicts_per_cycle_util =       8.3358
Req_Bank_Level_Parallism =      21.3529
Req_Network_in_buffer_full_per_cycle =       0.0000
Req_Network_in_buffer_avg_util =       4.1075
Req_Network_out_buffer_full_per_cycle =       0.0126
Req_Network_out_buffer_avg_util =       3.9019

Reply_Network_injected_packets_num = 17581214
Reply_Network_cycles = 938109
Reply_Network_injected_packets_per_cycle =       18.7411
Reply_Network_conflicts_per_cycle =       13.7447
Reply_Network_conflicts_per_cycle_util =      15.2256
Reply_Bank_Level_Parallism =      20.7603
Reply_Network_in_buffer_full_per_cycle =       0.0000
Reply_Network_in_buffer_avg_util =       2.3506
Reply_Network_out_buffer_full_per_cycle =       0.0000
Reply_Network_out_buffer_avg_util =       0.2343
----------------------------END-of-Interconnect-DETAILS-------------------------
GLOBAL_TIMER=938109, gpu_tot_sim_cycle=938109, gpu_sim_cycle=7659
gpgpu_sim::update_stats() last_streamID=0, last_uid=10, start_cycle=930450, end_cycle=938108, sim cycle for this kernel is 7659


gpgpu_simulation_time = 0 days, 0 hrs, 46 min, 59 sec (2819 sec)
gpgpu_simulation_rate = 132676 (inst/sec)
gpgpu_simulation_rate = 332 (cycle/sec)
gpgpu_silicon_slowdown = 4358433x
GPGPU-Sim: *** simulation thread exiting ***
GPGPU-Sim: *** exit detected ***
